
 Fire Dynamics Simulator

 Current Date     : October 26, 2022  21:09:37
 Revision         : FDS6.7.9-0-gec52dee-HEAD
 Revision Date    : Sun Jun 26 14:36:40 2022 -0400
 Compiler         : ifort version 2021.2.0
 Compilation Date : Jun 30, 2022 15:04:40

 MPI Enabled;    Number of MPI Processes:       1
 OpenMP Disabled

 MPI version: 3.1
 MPI library version: Intel(R) MPI Library 2021.2 for Linux* OS


 Job TITLE        : Example of a Steckler case, with 3/6 door
 Job ID string    : StecklerExample


 Grid Dimensions, Mesh     1

   Cells in the X Direction            40
   Cells in the Y Direction            28
   Cells in the Z Direction            22
   Number of Grid Cells             24640


 Physical Dimensions, Mesh     1

   Length (m)                       4.000
   Width  (m)                       2.800
   Height (m)                       2.200
   Initial Time Step (s)            0.107

 Total Number of Grid Cells         24640


 Maximum Cell Aspect Ratio          1.000
 CFL Velocity Norm                      2


 Miscellaneous Parameters

   Simulation Start Time (s)          0.0
   Simulation End Time (s)         1800.0
   Background Pressure (Pa)     101325.00
   Ambient Temperature (C)          20.00

   3D Cartesian
   VLES Calculation
   Eddy Viscosity: Deardorff Model (C_DEARDORFF = 0.10)
   Surface BURNER Eddy Viscosity: WALE Model (C_WALE = 0.60)
   Surface Wall Lining Eddy Viscosity: WALE Model (C_WALE = 0.60)
   Turbulent Prandtl Number:         0.50
   Turbulent Schmidt Number:         0.50


 Background Stratification

      Z (m)     P_0 (Pa)    TMP_0 (C)
   ------------------------------------
        2.15    101299.80     20.00
        2.05    101300.97     20.00
        1.95    101302.14     20.00
        1.85    101303.31     20.00
        1.75    101304.49     20.00
        1.65    101305.66     20.00
        1.55    101306.83     20.00
        1.45    101308.00     20.00
        1.35    101309.17     20.00
        1.25    101310.34     20.00
        1.15    101311.51     20.00
        1.05    101312.69     20.00
        0.95    101313.86     20.00
        0.85    101315.03     20.00
        0.75    101316.20     20.00
        0.65    101317.38     20.00
        0.55    101318.55     20.00
        0.45    101319.72     20.00
        0.35    101320.89     20.00
        0.25    101322.07     20.00
        0.15    101323.24     20.00
        0.05    101324.41     20.00


 Mass Fraction Transformation Matrix to Convert Species Mixtures (Columns) to Primitive Species (Rows)

                         AIR       PROPANE   PRODUCTS
   PROPANE               0.000000  1.000000  0.000000
   NITROGEN              0.762470  0.000000  0.716116
   OXYGEN                0.230997  0.000000  0.000000
   CARBON DIOXIDE        0.000591  0.000000  0.177727
   WATER VAPOR           0.005941  0.000000  0.104820
   CARBON MONOXIDE       0.000000  0.000000  0.000000
   SOOT                  0.000000  0.000000  0.001337
   HYDROGEN              0.000000  0.000000  0.000000
   HYDROGEN CYANIDE      0.000000  0.000000  0.000000


 Primitive Species Information

   PROPANE
   Gas Species
   Molecular Weight (g/mol)            44.09562
   Ambient Density (kg/m^3)            1.833
   Enthalpy of Formation (J/kg)       -2.37E+06

   NITROGEN
   Gas Species
   Molecular Weight (g/mol)            28.01340
   Ambient Density (kg/m^3)            1.165
   Enthalpy of Formation (J/kg)        0.00E+00

   OXYGEN
   Gas Species
   Molecular Weight (g/mol)            31.99880
   Ambient Density (kg/m^3)            1.330
   Enthalpy of Formation (J/kg)        0.00E+00

   CARBON DIOXIDE
   Gas Species
   Molecular Weight (g/mol)            44.00950
   Ambient Density (kg/m^3)            1.830
   Enthalpy of Formation (J/kg)       -8.94E+06

   WATER VAPOR
   Gas Species
   Molecular Weight (g/mol)            18.01528
   Ambient Density (kg/m^3)            0.749
   Enthalpy of Formation (J/kg)       -1.34E+07

   CARBON MONOXIDE
   Gas Species
   Molecular Weight (g/mol)            28.01010
   Ambient Density (kg/m^3)            1.164
   Enthalpy of Formation (J/kg)       -3.95E+06

   SOOT
   Gas Species
   Molecular Weight (g/mol)            10.91042
   Ambient Density (kg/m^3)            0.454
   Enthalpy of Formation (J/kg)        0.00E+00

   HYDROGEN
   Gas Species
   Molecular Weight (g/mol)             2.01588
   Ambient Density (kg/m^3)            0.084
   Enthalpy of Formation (J/kg)        0.00E+00

   HYDROGEN CYANIDE
   Gas Species
   Molecular Weight (g/mol)            27.02534
   Ambient Density (kg/m^3)            1.123
   Enthalpy of Formation (J/kg)        4.92E+06


 Tracked (Lumped) Species Information

   AIR
   Molecular Weight (g/mol)            28.75198
   Ambient Density (kg/m^3)            1.195
   Initial Mass Fraction               1.000
   Enthalpy of Formation (J/kg)     -8.50E+04

   Sub Species                    Mass Fraction     Mole Fraction
   NITROGEN                       7.624699E-01      7.825727E-01
   OXYGEN                         2.309974E-01      2.075588E-01
   CARBON DIOXIDE                 5.914650E-04      3.864118E-04
   WATER VAPOR                    5.941209E-03      9.482037E-03
 
     Viscosity (kg/m/s) Ambient,  293 K:  1.80E-05
                                  500 K:  2.61E-05
                                 1000 K:  4.13E-05
                                 1500 K:  5.37E-05
   Therm. Cond. (W/m/K) Ambient,  293 K:  2.56E-02
                                  500 K:  3.81E-02
                                 1000 K:  6.69E-02
                                 1500 K:  9.25E-02
        Enthalpy (J/kg) Ambient,  293 K: -9.01E+04
                                  500 K:  1.22E+05
                                 1000 K:  6.72E+05
                                 1500 K:  1.27E+06
    Spec. Heat (J/kg/K) Ambient,  293 K:  1.02E+03
                                  500 K:  1.04E+03
                                 1000 K:  1.16E+03
                                 1500 K:  1.23E+03
   Diff. Coeff. (m^2/s) Ambient,  293 K:  1.99E-05
                                  500 K:  4.96E-05
                                 1000 K:  1.58E-04
                                 1500 K:  3.09E-04

   PROPANE
   Molecular Weight (g/mol)            44.09562
   Ambient Density (kg/m^3)            1.833
   Initial Mass Fraction               0.000
   Enthalpy of Formation (J/kg)     -2.37E+06

   Sub Species                    Mass Fraction     Mole Fraction
   PROPANE                        1.000000E+00      1.000000E+00
 
     Viscosity (kg/m/s) Ambient,  293 K:  8.08E-06
                                  500 K:  1.31E-05
                                 1000 K:  2.23E-05
                                 1500 K:  2.96E-05
   Therm. Cond. (W/m/K) Ambient,  293 K:  1.66E-02
                                  500 K:  4.18E-02
                                 1000 K:  1.11E-01
                                 1500 K:  1.72E-01
        Enthalpy (J/kg) Ambient,  293 K: -2.38E+06
                                  500 K: -1.95E+06
                                 1000 K: -2.77E+05
                                 1500 K:  1.90E+06
    Spec. Heat (J/kg/K) Ambient,  293 K:  1.65E+03
                                  500 K:  2.55E+03
                                 1000 K:  3.96E+03
                                 1500 K:  4.67E+03
   Diff. Coeff. (m^2/s) Ambient,  293 K:  1.11E-05
                                  500 K:  2.86E-05
                                 1000 K:  9.32E-05
                                 1500 K:  1.83E-04

   PRODUCTS
   Molecular Weight (g/mol)            28.13519
   Ambient Density (kg/m^3)            1.170
   Initial Mass Fraction               0.000
   Enthalpy of Formation (J/kg)     -3.00E+06

   Sub Species                    Mass Fraction     Mole Fraction
   NITROGEN                       7.161161E-01      7.192295E-01
   CARBON DIOXIDE                 1.777267E-01      1.136203E-01
   WATER VAPOR                    1.048197E-01      1.637012E-01
   CARBON MONOXIDE                0.000000E+00      0.000000E+00
   SOOT                           1.337474E-03      3.449004E-03
   HYDROGEN CYANIDE               0.000000E+00      0.000000E+00
 
     Viscosity (kg/m/s) Ambient,  293 K:  1.61E-05
                                  500 K:  2.39E-05
                                 1000 K:  3.89E-05
                                 1500 K:  5.14E-05
   Therm. Cond. (W/m/K) Ambient,  293 K:  2.34E-02
                                  500 K:  3.62E-02
                                 1000 K:  6.72E-02
                                 1500 K:  9.64E-02
        Enthalpy (J/kg) Ambient,  293 K: -3.00E+06
                                  500 K: -2.77E+06
                                 1000 K: -2.16E+06
                                 1500 K: -1.48E+06
    Spec. Heat (J/kg/K) Ambient,  293 K:  1.09E+03
                                  500 K:  1.14E+03
                                 1000 K:  1.30E+03
                                 1500 K:  1.40E+03
   Diff. Coeff. (m^2/s) Ambient,  293 K:  1.95E-05
                                  500 K:  4.96E-05
                                 1000 K:  1.60E-04
                                 1500 K:  3.15E-04


 Gas Phase Reaction Information

      Fuel                                           Heat of Combustion (kJ/kg)
      PROPANE                                                        45596.1101

      Primitive Species Stoich. Coeff.
      Species ID                                                          Molar
      PROPANE                                                         -1.000000
      OXYGEN                                                          -4.917753
      CARBON DIOXIDE                                                   2.919976
      WATER VAPOR                                                      3.995554
      SOOT                                                             0.088915

      Tracked (Lumped) Species Stoich. Coeff.
      Species ID                                             Molar         Mass
      AIR                                               -23.693300   -15.448912
      PROPANE                                            -1.000000    -1.000000
      PRODUCTS                                           25.779992    16.448912

      Reaction Kinetics

      Fast chemistry

      ODE Solver:  EXPLICIT EULER
      Extinction Model:  EXTINCTION 2
      Auto-Ignition Temperature (K):       0.0
      Critical Flame Temperature (K):   1720.2

      Prescribed Radiative Fraction:     0.290


 Material Information

   1 MARINITE
     Emissivity                      0.900
     Density (kg/m3)                 737.0
     Specific Heat (kJ/kg/K)       1.20E+00
     Conductivity (W/m/K)          1.20E-01


 Surface Conditions

   0 INERT

   1 BURNER
     HRR Per Unit Area (kW/m2)        393.7
     PROPANE Mass Flux (kg/s/m2)   8.64E-03

   2 Wall Lining (DEFAULT)
     Material List
          1  MARINITE
     Layer  1
        Thickness   (m):  0.02540
        Density (kg/m3):   737.00
        MARINITE, Mass fraction:    1.00
     Total surface density    18.720 kg/m2
     Reaction products considered from the first  0.50 layers.
     Solid Phase Node, Layer, Coordinates(m):
                    0      1       0.0000000
                    1      1       0.0002702
                    2      1       0.0008106
                    3      1       0.0018915
                    4      1       0.0040532
                    5      1       0.0083766
                    6      1       0.0170234
                    7      1       0.0213468
                    8      1       0.0235085
                    9      1       0.0245894
                   10      1       0.0251298
                   11      1       0.0254000
     Exposed Backing

   3 OPEN
     Passive Vent to Atmosphere

   4 MIRROR
     Symmetry Plane

   5 INTERPOLATED

   6 PERIODIC

   7 HVAC

   8 MASSLESS TRACER

   9 DROPLET

  10 MASSLESS TARGET

  11 PERIODIC FLOW ONLY


 Lagrangian Particle Classes


 Cut-off Density and Temperature

    Minimum Temperature:   -10.0 C
    Maximum Temperature:  2726.8 C
    Minimum Density:  1.195E-01 kg/m3
    Maximum Density:  4.084E+00 kg/m3


 Device Information

   1 ID: Temp_Door_Low
     QUANTITY: TEMPERATURE
     Coordinates (X,Y,Z):    1.450000E+00    5.000000E-02    1.000000E-01
     TEMPORAL STATISTIC: TIME AVERAGE
   2 ID: Temp_Door_Mid
     QUANTITY: TEMPERATURE
     Coordinates (X,Y,Z):    1.450000E+00    5.000000E-02    1.000000E+00
     TEMPORAL STATISTIC: TIME AVERAGE
   3 ID: Temp_Door_High
     QUANTITY: TEMPERATURE
     Coordinates (X,Y,Z):    1.450000E+00    5.000000E-02    1.650000E+00
     TEMPORAL STATISTIC: TIME AVERAGE


 Slice File Information, Mesh     1

   1 Nodes:  14  14   0  28   0  22, Quantity: TEMPERATURE
   2 Nodes:   0  40  14  14   0  22, Quantity: TEMPERATURE
   3 Nodes:  14  14   0  28   0  22, Quantity: W-VELOCITY
   4 Nodes:   0  40  14  14   0  22, Quantity: U-VELOCITY
   5 Nodes:   0  40   0  28  18  18, Quantity: W-VELOCITY


 Boundary File Information

   1 Quantity: WALL TEMPERATURE


 Radiation Model Information

   Number of control angles  104
   Time step increment         3
   Angle increment             5
   Theta band N_phi   Solid angle
     1:        4     0.120
     2:       12     0.114
     3:       16     0.127
     4:       20     0.120
     5:       20     0.120
     6:       16     0.127
     7:       12     0.114
     8:        4     0.120
   Using gray gas absorption.
   Mean beam length  1.000E-01 m
 
 

 Run Time Diagnostics

       Time Step       1   October 26, 2022  21:09:37
       Step Size:    0.107E+00 s, Total Time:       0.11 s
       Pressure Iterations: 1
       Maximum Velocity Error:  0.30E-02 on Mesh 1 at (28,0,20)
       Maximum Pressure Error:  0.31E-05 on Mesh 1 at (28,22,13)
       ---------------------------------------------------------------
       Max CFL number:  0.28E-01 at (3,18,13)
       Max divergence:  0.18E-05 at (35,18,2)
       Min divergence: -0.21E-02 at (14,16,3)
       Max VN number:   0.36E-01 at (28,19,15)
 
       Time Step       2   October 26, 2022  21:09:37
       Step Size:    0.107E+00 s, Total Time:       0.21 s
       Pressure Iterations: 1
       Maximum Velocity Error:  0.29E-01 on Mesh 1 at (15,14,2)
       Maximum Pressure Error:  0.23E-01 on Mesh 1 at (13,16,3)
       ---------------------------------------------------------------
       Max CFL number:  0.27E-01 at (3,18,13)
       Max divergence:  0.98E+00 at (15,13,3)
       Min divergence: -0.19E-05 at (4,10,21)
       Max VN number:   0.30E-01 at (28,24,8)
       Total Heat Release Rate:              5.113 kW
 
       Time Step       3   October 26, 2022  21:09:37
       Step Size:    0.107E+00 s, Total Time:       0.32 s
       Pressure Iterations: 1
       Maximum Velocity Error:  0.41E-01 on Mesh 1 at (15,14,2)
       Maximum Pressure Error:  0.11E+02 on Mesh 1 at (16,16,3)
       ---------------------------------------------------------------
       Max CFL number:  0.17E+00 at (16,16,3)
       Max divergence:  0.94E-01 at (16,16,3)
       Min divergence: -0.18E-01 at (13,16,3)
       Max VN number:   0.29E-01 at (28,24,8)
       Total Heat Release Rate:              0.126 kW
       Radiation Loss to Boundaries:        -0.018 kW
 
       Time Step       4   October 26, 2022  21:09:37
       Step Size:    0.107E+00 s, Total Time:       0.43 s
       Pressure Iterations: 4
       Maximum Velocity Error:  0.21E-01 on Mesh 1 at (15,15,2)
       Maximum Pressure Error:  0.67E+02 on Mesh 1 at (16,16,3)
       ---------------------------------------------------------------
       Max CFL number:  0.59E-01 at (15,13,4)
       Max divergence:  0.14E+02 at (15,15,3)
       Min divergence: -0.19E-05 at (4,10,21)
       Max VN number:   0.83E-01 at (13,13,3)
       Total Heat Release Rate:             56.980 kW
       Radiation Loss to Boundaries:        -0.448 kW
 
       Time Step       5   October 26, 2022  21:09:37
       Step Size:    0.447E-01 s, Total Time:       0.47 s
       Pressure Iterations: 3
       Maximum Velocity Error:  0.26E-01 on Mesh 1 at (15,14,2)
       Maximum Pressure Error:  0.83E+03 on Mesh 1 at (16,14,3)
       ---------------------------------------------------------------
       Max CFL number:  0.80E+00 at (14,15,3)
       Max divergence:  0.50E+01 at (16,14,3)
       Min divergence: -0.51E-05 at (14,14,6)
       Max VN number:   0.25E+00 at (15,15,3)
       Total Heat Release Rate:             51.306 kW
       Radiation Loss to Boundaries:        -7.305 kW
       No. of CLIP DT restrictions:  1
 
       Time Step       6   October 26, 2022  21:09:38
       Step Size:    0.491E-01 s, Total Time:       0.52 s
       Pressure Iterations: 3
       Maximum Velocity Error:  0.25E-01 on Mesh 1 at (15,15,2)
       Maximum Pressure Error:  0.25E+03 on Mesh 1 at (16,14,3)
       ---------------------------------------------------------------
       Max CFL number:  0.41E+00 at (15,16,3)
       Max divergence:  0.33E+01 at (15,13,3)
       Min divergence: -0.56E+00 at (15,15,3)
       Max VN number:   0.75E-01 at (13,13,3)
       Total Heat Release Rate:             49.431 kW
       Radiation Loss to Boundaries:       -22.809 kW
 
       Time Step       7   October 26, 2022  21:09:38
       Step Size:    0.540E-01 s, Total Time:       0.57 s
       Pressure Iterations: 2
       Maximum Velocity Error:  0.44E-01 on Mesh 1 at (15,15,2)
       Maximum Pressure Error:  0.16E+03 on Mesh 1 at (16,16,3)
       ---------------------------------------------------------------
       Max CFL number:  0.30E+00 at (15,13,3)
       Max divergence:  0.28E+01 at (13,16,3)
       Min divergence: -0.10E-05 at (38,6,20)
       Max VN number:   0.50E-01 at (13,16,4)
       Total Heat Release Rate:             52.747 kW
       Radiation Loss to Boundaries:       -25.715 kW
 
       Time Step       8   October 26, 2022  21:09:38
       Step Size:    0.594E-01 s, Total Time:       0.63 s
       Pressure Iterations: 2
       Maximum Velocity Error:  0.32E-01 on Mesh 1 at (15,15,2)
       Maximum Pressure Error:  0.16E+03 on Mesh 1 at (16,16,3)
       ---------------------------------------------------------------
       Max CFL number:  0.43E+00 at (16,16,3)
       Max divergence:  0.95E+00 at (15,13,4)
       Min divergence: -0.33E+01 at (15,15,3)
       Max VN number:   0.95E-01 at (14,13,4)
       Total Heat Release Rate:             40.350 kW
       Radiation Loss to Boundaries:       -34.727 kW
 
       Time Step       9   October 26, 2022  21:09:38
       Step Size:    0.654E-01 s, Total Time:       0.70 s
       Pressure Iterations: 3
       Maximum Velocity Error:  0.34E-01 on Mesh 1 at (15,15,2)
       Maximum Pressure Error:  0.25E+03 on Mesh 1 at (16,15,3)
       ---------------------------------------------------------------
       Max CFL number:  0.64E+00 at (15,16,3)
       Max divergence:  0.46E+01 at (15,15,3)
       Min divergence: -0.10E-05 at (32,3,4)
       Max VN number:   0.12E+00 at (14,13,4)
       Total Heat Release Rate:             43.458 kW
       Radiation Loss to Boundaries:       -14.630 kW
 
       Time Step      10   October 26, 2022  21:09:38
       Step Size:    0.719E-01 s, Total Time:       0.77 s
       Pressure Iterations: 3
       Maximum Velocity Error:  0.21E-01 on Mesh 1 at (15,15,2)
       Maximum Pressure Error:  0.39E+03 on Mesh 1 at (15,15,3)
       ---------------------------------------------------------------
       Max CFL number:  0.87E+00 at (15,16,3)
       Max divergence:  0.18E+01 at (13,16,3)
       Min divergence: -0.39E+01 at (14,15,3)
       Max VN number:   0.21E+00 at (15,15,3)
       Total Heat Release Rate:             35.498 kW
       Radiation Loss to Boundaries:       -28.120 kW
 
       Time Step      20   October 26, 2022  21:09:39
       Step Size:    0.228E-01 s, Total Time:       1.14 s
       Pressure Iterations: 1
       Maximum Velocity Error:  0.56E-02 on Mesh 1 at (14,15,2)
       Maximum Pressure Error:  0.46E+02 on Mesh 1 at (14,15,8)
       ---------------------------------------------------------------
       Max CFL number:  0.88E+00 at (15,14,7)
       Max divergence:  0.35E+01 at (14,15,3)
       Min divergence: -0.48E+00 at (14,15,7)
       Max VN number:   0.18E+00 at (15,14,6)
       Total Heat Release Rate:             50.179 kW
       Radiation Loss to Boundaries:       -11.651 kW
 
       Time Step      30   October 26, 2022  21:09:39
       Step Size:    0.194E-01 s, Total Time:       1.35 s
       Pressure Iterations: 1
       Maximum Velocity Error:  0.44E-02 on Mesh 1 at (15,15,22)
       Maximum Pressure Error:  0.83E+02 on Mesh 1 at (14,15,12)
       ---------------------------------------------------------------
       Max CFL number:  0.93E+00 at (15,14,11)
       Max divergence:  0.37E+01 at (16,14,3)
       Min divergence: -0.70E+00 at (14,15,12)
       Max VN number:   0.21E+00 at (15,14,10)
       Total Heat Release Rate:             53.626 kW
       Radiation Loss to Boundaries:       -12.315 kW
 
       Time Step      40   October 26, 2022  21:09:40
       Step Size:    0.172E-01 s, Total Time:       1.54 s
       Pressure Iterations: 1
       Maximum Velocity Error:  0.13E-01 on Mesh 1 at (14,15,22)
       Maximum Pressure Error:  0.13E+03 on Mesh 1 at (14,15,17)
       ---------------------------------------------------------------
       Max CFL number:  0.91E+00 at (15,14,12)
       Max divergence:  0.38E+01 at (14,16,3)
       Min divergence: -0.13E+01 at (14,15,17)
       Max VN number:   0.27E+00 at (14,15,16)
       Total Heat Release Rate:             56.962 kW
       Radiation Loss to Boundaries:       -14.281 kW
 
       Time Step      50   October 26, 2022  21:09:40
       Step Size:    0.152E-01 s, Total Time:       1.70 s
       Pressure Iterations: 2
       Maximum Velocity Error:  0.29E-01 on Mesh 1 at (14,14,22)
       Maximum Pressure Error:  0.99E+02 on Mesh 1 at (14,15,21)
       ---------------------------------------------------------------
       Max CFL number:  0.87E+00 at (15,14,16)
       Max divergence:  0.39E+01 at (16,15,3)
       Min divergence: -0.13E+01 at (15,15,9)
       Max VN number:   0.24E+00 at (15,13,17)
       Total Heat Release Rate:             58.889 kW
       Radiation Loss to Boundaries:       -14.670 kW
 
       Time Step      60   October 26, 2022  21:09:41
       Step Size:    0.152E-01 s, Total Time:       1.85 s
       Pressure Iterations: 2
       Maximum Velocity Error:  0.42E-01 on Mesh 1 at (13,13,22)
       Maximum Pressure Error:  0.71E+02 on Mesh 1 at (14,14,16)
       ---------------------------------------------------------------
       Max CFL number:  0.95E+00 at (15,13,22)
       Max divergence:  0.39E+01 at (16,15,3)
       Min divergence: -0.15E+01 at (15,15,13)
       Max VN number:   0.46E+00 at (16,16,22)
       Total Heat Release Rate:             59.978 kW
       Radiation Loss to Boundaries:       -14.695 kW
 
       Time Step      70   October 26, 2022  21:09:42
       Step Size:    0.134E-01 s, Total Time:       1.99 s
       Pressure Iterations: 2
       Maximum Velocity Error:  0.13E-01 on Mesh 1 at (18,17,22)
       Maximum Pressure Error:  0.49E+02 on Mesh 1 at (14,14,15)
       ---------------------------------------------------------------
       Max CFL number:  0.76E+00 at (14,14,19)
       Max divergence:  0.40E+01 at (16,15,3)
       Min divergence: -0.17E+01 at (14,15,10)
       Max VN number:   0.47E+00 at (13,11,22)
       Total Heat Release Rate:             60.992 kW
       Radiation Loss to Boundaries:       -15.005 kW
 
       Time Step      80   October 26, 2022  21:09:42
       Step Size:    0.162E-01 s, Total Time:       2.15 s
       Pressure Iterations: 2
       Maximum Velocity Error:  0.14E-01 on Mesh 1 at (16,8,22)
       Maximum Pressure Error:  0.35E+02 on Mesh 1 at (14,15,15)
       ---------------------------------------------------------------
       Max CFL number:  0.90E+00 at (14,14,19)
       Max divergence:  0.40E+01 at (14,16,3)
       Min divergence: -0.16E+01 at (14,15,13)
       Max VN number:   0.49E+00 at (18,10,22)
       Total Heat Release Rate:             60.637 kW
       Radiation Loss to Boundaries:       -14.738 kW
 
       Time Step      90   October 26, 2022  21:09:43
       Step Size:    0.162E-01 s, Total Time:       2.32 s
       Pressure Iterations: 2
       Maximum Velocity Error:  0.17E-01 on Mesh 1 at (13,14,22)
       Maximum Pressure Error:  0.41E+02 on Mesh 1 at (14,16,15)
       ---------------------------------------------------------------
       Max CFL number:  0.86E+00 at (15,15,20)
       Max divergence:  0.40E+01 at (15,13,3)
       Min divergence: -0.12E+01 at (14,14,12)
       Max VN number:   0.53E+00 at (12,12,22)
       Total Heat Release Rate:             61.018 kW
       Radiation Loss to Boundaries:       -14.928 kW
 
       Time Step     100   October 26, 2022  21:09:44
       Step Size:    0.162E-01 s, Total Time:       2.48 s
       Pressure Iterations: 2
       Maximum Velocity Error:  0.14E-01 on Mesh 1 at (15,15,22)
       Maximum Pressure Error:  0.52E+02 on Mesh 1 at (14,16,19)
       ---------------------------------------------------------------
       Max CFL number:  0.83E+00 at (15,15,18)
       Max divergence:  0.40E+01 at (15,13,3)
       Min divergence: -0.12E+01 at (15,14,12)
       Max VN number:   0.52E+00 at (11,18,22)
       Total Heat Release Rate:             62.282 kW
       Radiation Loss to Boundaries:       -15.423 kW
 
       Time Step     200   October 26, 2022  21:09:50
       Step Size:    0.162E-01 s, Total Time:       4.10 s
       Pressure Iterations: 2
       Maximum Velocity Error:  0.15E-01 on Mesh 1 at (14,13,22)
       Maximum Pressure Error:  0.85E+02 on Mesh 1 at (15,16,17)
       ---------------------------------------------------------------
       Max CFL number:  0.97E+00 at (15,15,13)
       Max divergence:  0.44E+01 at (15,13,3)
       Min divergence: -0.24E+01 at (15,15,11)
       Max VN number:   0.42E+00 at (3,16,22)
       Total Heat Release Rate:             62.730 kW
       Radiation Loss to Boundaries:       -15.501 kW
 
       Time Step     300   October 26, 2022  21:09:57
       Step Size:    0.156E-01 s, Total Time:       5.59 s
       Pressure Iterations: 2
       Maximum Velocity Error:  0.19E-01 on Mesh 1 at (14,18,22)
       Maximum Pressure Error:  0.15E+03 on Mesh 1 at (14,14,12)
       ---------------------------------------------------------------
       Max CFL number:  0.88E+00 at (15,17,22)
       Max divergence:  0.45E+01 at (15,15,3)
       Min divergence: -0.23E+01 at (15,14,9)
       Max VN number:   0.44E+00 at (15,14,22)
       Total Heat Release Rate:             62.281 kW
       Radiation Loss to Boundaries:       -15.368 kW
 
       Time Step     400   October 26, 2022  21:10:04
       Step Size:    0.148E-01 s, Total Time:       7.13 s
       Pressure Iterations: 2
       Maximum Velocity Error:  0.19E-01 on Mesh 1 at (16,18,22)
       Maximum Pressure Error:  0.63E+02 on Mesh 1 at (16,17,20)
       ---------------------------------------------------------------
       Max CFL number:  0.83E+00 at (14,15,17)
       Max divergence:  0.42E+01 at (15,13,3)
       Min divergence: -0.18E+01 at (14,14,10)
       Max VN number:   0.28E+00 at (22,1,21)
       Total Heat Release Rate:             63.228 kW
       Radiation Loss to Boundaries:       -16.191 kW
 
       Time Step     500   October 26, 2022  21:10:11
       Step Size:    0.174E-01 s, Total Time:       8.76 s
       Pressure Iterations: 2
       Maximum Velocity Error:  0.17E-01 on Mesh 1 at (14,15,22)
       Maximum Pressure Error:  0.12E+03 on Mesh 1 at (14,14,11)
       ---------------------------------------------------------------
       Max CFL number:  0.94E+00 at (14,14,10)
       Max divergence:  0.45E+01 at (14,15,3)
       Min divergence: -0.20E+01 at (14,14,11)
       Max VN number:   0.35E+00 at (22,2,22)
       Total Heat Release Rate:             62.921 kW
       Radiation Loss to Boundaries:       -15.792 kW
 
       Time Step     600   October 26, 2022  21:10:18
       Step Size:    0.177E-01 s, Total Time:      10.41 s
       Pressure Iterations: 2
       Maximum Velocity Error:  0.20E-01 on Mesh 1 at (14,13,22)
       Maximum Pressure Error:  0.75E+02 on Mesh 1 at (13,15,16)
       ---------------------------------------------------------------
       Max CFL number:  0.83E+00 at (14,16,18)
       Max divergence:  0.42E+01 at (15,16,3)
       Min divergence: -0.17E+01 at (15,14,10)
       Max VN number:   0.42E+00 at (16,13,22)
       Total Heat Release Rate:             63.019 kW
       Radiation Loss to Boundaries:       -15.881 kW
 
       Time Step     700   October 26, 2022  21:10:25
       Step Size:    0.172E-01 s, Total Time:      12.13 s
       Pressure Iterations: 2
       Maximum Velocity Error:  0.15E-01 on Mesh 1 at (11,15,22)
       Maximum Pressure Error:  0.11E+03 on Mesh 1 at (14,13,12)
       ---------------------------------------------------------------
       Max CFL number:  0.90E+00 at (15,14,17)
       Max divergence:  0.46E+01 at (15,16,3)
       Min divergence: -0.14E+01 at (14,14,9)
       Max VN number:   0.41E+00 at (27,14,22)
       Total Heat Release Rate:             63.101 kW
       Radiation Loss to Boundaries:       -16.777 kW
 
       Time Step     800   October 26, 2022  21:10:32
       Step Size:    0.156E-01 s, Total Time:      13.72 s
       Pressure Iterations: 2
       Maximum Velocity Error:  0.16E-01 on Mesh 1 at (12,13,22)
       Maximum Pressure Error:  0.67E+02 on Mesh 1 at (15,15,9)
       ---------------------------------------------------------------
       Max CFL number:  0.81E+00 at (14,13,17)
       Max divergence:  0.47E+01 at (15,16,3)
       Min divergence: -0.25E+01 at (15,14,10)
       Max VN number:   0.36E+00 at (13,15,22)
       Total Heat Release Rate:             62.905 kW
       Radiation Loss to Boundaries:       -16.204 kW
 
       Time Step     900   October 26, 2022  21:10:39
       Step Size:    0.184E-01 s, Total Time:      15.41 s
       Pressure Iterations: 2
       Maximum Velocity Error:  0.18E-01 on Mesh 1 at (14,13,22)
       Maximum Pressure Error:  0.13E+03 on Mesh 1 at (13,14,8)
       ---------------------------------------------------------------
       Max CFL number:  0.94E+00 at (14,15,11)
       Max divergence:  0.43E+01 at (13,15,3)
       Min divergence: -0.16E+01 at (14,14,10)
       Max VN number:   0.47E+00 at (13,17,22)
       Total Heat Release Rate:             61.751 kW
       Radiation Loss to Boundaries:       -16.850 kW
 
       Time Step    1000   October 26, 2022  21:10:45
       Step Size:    0.164E-01 s, Total Time:      17.11 s
       Pressure Iterations: 1
       Maximum Velocity Error:  0.50E-01 on Mesh 1 at (15,14,22)
       Maximum Pressure Error:  0.96E+02 on Mesh 1 at (13,15,13)
       ---------------------------------------------------------------
       Max CFL number:  0.86E+00 at (13,14,14)
       Max divergence:  0.44E+01 at (14,16,3)
       Min divergence: -0.16E+01 at (13,15,12)
       Max VN number:   0.41E+00 at (29,16,18)
       Total Heat Release Rate:             62.864 kW
       Radiation Loss to Boundaries:       -17.560 kW
 
       Time Step    1100   October 26, 2022  21:10:52
       Step Size:    0.189E-01 s, Total Time:      18.93 s
       Pressure Iterations: 2
       Maximum Velocity Error:  0.10E-01 on Mesh 1 at (21,12,22)
       Maximum Pressure Error:  0.49E+02 on Mesh 1 at (13,13,9)
       ---------------------------------------------------------------
       Max CFL number:  0.86E+00 at (12,15,16)
       Max divergence:  0.57E+01 at (15,13,3)
       Min divergence: -0.12E+01 at (14,13,8)
       Max VN number:   0.42E+00 at (29,14,18)
       Total Heat Release Rate:             63.903 kW
       Radiation Loss to Boundaries:       -17.059 kW
 
       Time Step    1200   October 26, 2022  21:10:59
       Step Size:    0.230E-01 s, Total Time:      21.01 s
       Pressure Iterations: 2
       Maximum Velocity Error:  0.15E-01 on Mesh 1 at (13,15,22)
       Maximum Pressure Error:  0.46E+02 on Mesh 1 at (14,15,3)
       ---------------------------------------------------------------
       Max CFL number:  0.95E+00 at (14,16,12)
       Max divergence:  0.52E+01 at (13,15,3)
       Min divergence: -0.13E+01 at (13,15,8)
       Max VN number:   0.62E+00 at (29,14,18)
       Total Heat Release Rate:             62.436 kW
       Radiation Loss to Boundaries:       -17.058 kW
 
       Time Step    1300   October 26, 2022  21:11:06
       Step Size:    0.212E-01 s, Total Time:      23.05 s
       Pressure Iterations: 2
       Maximum Velocity Error:  0.19E-01 on Mesh 1 at (14,14,22)
       Maximum Pressure Error:  0.30E+02 on Mesh 1 at (14,15,7)
       ---------------------------------------------------------------
       Max CFL number:  0.88E+00 at (12,14,16)
       Max divergence:  0.45E+01 at (15,15,3)
       Min divergence: -0.89E+00 at (13,14,8)
       Max VN number:   0.54E+00 at (29,13,18)
       Total Heat Release Rate:             60.476 kW
       Radiation Loss to Boundaries:       -16.946 kW
 
       Time Step    1400   October 26, 2022  21:11:13
       Step Size:    0.221E-01 s, Total Time:      25.33 s
       Pressure Iterations: 2
       Maximum Velocity Error:  0.11E-01 on Mesh 1 at (8,12,22)
       Maximum Pressure Error:  0.31E+02 on Mesh 1 at (12,15,7)
       ---------------------------------------------------------------
       Max CFL number:  0.88E+00 at (12,16,14)
       Max divergence:  0.45E+01 at (13,14,3)
       Min divergence: -0.11E+01 at (11,16,12)
       Max VN number:   0.61E+00 at (29,16,18)
       Total Heat Release Rate:             62.514 kW
       Radiation Loss to Boundaries:       -17.251 kW
 
       Time Step    1500   October 26, 2022  21:11:20
       Step Size:    0.206E-01 s, Total Time:      27.48 s
       Pressure Iterations: 2
       Maximum Velocity Error:  0.23E-01 on Mesh 1 at (11,13,22)
       Maximum Pressure Error:  0.45E+02 on Mesh 1 at (13,15,14)
       ---------------------------------------------------------------
       Max CFL number:  0.89E+00 at (12,14,14)
       Max divergence:  0.45E+01 at (15,15,3)
       Min divergence: -0.14E+01 at (13,15,9)
       Max VN number:   0.72E+00 at (29,16,18)
       Total Heat Release Rate:             61.214 kW
       Radiation Loss to Boundaries:       -17.188 kW
 
       Time Step    1600   October 26, 2022  21:11:27
       Step Size:    0.229E-01 s, Total Time:      29.65 s
       Pressure Iterations: 2
       Maximum Velocity Error:  0.17E-01 on Mesh 1 at (10,18,22)
       Maximum Pressure Error:  0.30E+02 on Mesh 1 at (12,12,15)
       ---------------------------------------------------------------
       Max CFL number:  0.90E+00 at (12,12,14)
       Max divergence:  0.49E+01 at (15,14,3)
       Min divergence: -0.71E+00 at (12,15,8)
       Max VN number:   0.68E+00 at (29,13,18)
       Total Heat Release Rate:             62.334 kW
       Radiation Loss to Boundaries:       -18.388 kW
 
       Time Step    1700   October 26, 2022  21:11:34
       Step Size:    0.204E-01 s, Total Time:      31.82 s
       Pressure Iterations: 1
       Maximum Velocity Error:  0.49E-01 on Mesh 1 at (8,13,22)
       Maximum Pressure Error:  0.34E+02 on Mesh 1 at (12,16,18)
       ---------------------------------------------------------------
       Max CFL number:  0.85E+00 at (12,16,18)
       Max divergence:  0.44E+01 at (15,13,3)
       Min divergence: -0.72E+00 at (12,15,11)
       Max VN number:   0.61E+00 at (29,14,18)
       Total Heat Release Rate:             60.870 kW
       Radiation Loss to Boundaries:       -18.413 kW
 
       Time Step    1800   October 26, 2022  21:11:41
       Step Size:    0.242E-01 s, Total Time:      34.09 s
       Pressure Iterations: 2
       Maximum Velocity Error:  0.14E-01 on Mesh 1 at (10,14,22)
       Maximum Pressure Error:  0.45E+02 on Mesh 1 at (14,15,6)
       ---------------------------------------------------------------
       Max CFL number:  0.88E+00 at (14,15,6)
       Max divergence:  0.45E+01 at (14,14,3)
       Min divergence: -0.10E+01 at (14,15,6)
       Max VN number:   0.95E+00 at (29,16,18)
       Total Heat Release Rate:             61.911 kW
       Radiation Loss to Boundaries:       -18.834 kW
 
       Time Step    1900   October 26, 2022  21:11:48
       Step Size:    0.200E-01 s, Total Time:      36.47 s
       Pressure Iterations: 2
       Maximum Velocity Error:  0.12E-01 on Mesh 1 at (5,16,22)
       Maximum Pressure Error:  0.42E+02 on Mesh 1 at (11,15,11)
       ---------------------------------------------------------------
       Max CFL number:  0.94E+00 at (12,14,11)
       Max divergence:  0.46E+01 at (15,15,3)
       Min divergence: -0.11E+01 at (12,14,12)
       Max VN number:   0.71E+00 at (29,16,18)
       Total Heat Release Rate:             62.729 kW
       Radiation Loss to Boundaries:       -19.913 kW
 
       Time Step    2000   October 26, 2022  21:11:55
       Step Size:    0.204E-01 s, Total Time:      38.53 s
       Pressure Iterations: 2
       Maximum Velocity Error:  0.23E-01 on Mesh 1 at (11,13,22)
       Maximum Pressure Error:  0.50E+02 on Mesh 1 at (11,16,12)
       ---------------------------------------------------------------
       Max CFL number:  0.90E+00 at (11,16,10)
       Max divergence:  0.45E+01 at (15,14,3)
       Min divergence: -0.10E+01 at (13,14,7)
       Max VN number:   0.73E+00 at (29,16,18)
       Total Heat Release Rate:             62.922 kW
       Radiation Loss to Boundaries:       -18.310 kW
 
       Time Step    2100   October 26, 2022  21:12:02
       Step Size:    0.230E-01 s, Total Time:      40.72 s
       Pressure Iterations: 2
       Maximum Velocity Error:  0.22E-01 on Mesh 1 at (8,10,22)
       Maximum Pressure Error:  0.28E+02 on Mesh 1 at (14,13,3)
       ---------------------------------------------------------------
       Max CFL number:  0.88E+00 at (10,12,13)
       Max divergence:  0.44E+01 at (15,16,3)
       Min divergence: -0.87E+00 at (12,14,9)
       Max VN number:   0.85E+00 at (29,16,18)
       Total Heat Release Rate:             62.090 kW
       Radiation Loss to Boundaries:       -19.057 kW
 
       Time Step    2200   October 26, 2022  21:12:09
       Step Size:    0.242E-01 s, Total Time:      43.04 s
       Pressure Iterations: 2
       Maximum Velocity Error:  0.16E-01 on Mesh 1 at (5,12,22)
       Maximum Pressure Error:  0.39E+02 on Mesh 1 at (13,17,11)
       ---------------------------------------------------------------
       Max CFL number:  0.88E+00 at (13,17,11)
       Max divergence:  0.45E+01 at (13,14,3)
       Min divergence: -0.71E+00 at (13,17,10)
       Max VN number:   0.75E+00 at (29,14,18)
       Total Heat Release Rate:             62.887 kW
       Radiation Loss to Boundaries:       -18.986 kW
 
       Time Step    2300   October 26, 2022  21:12:16
       Step Size:    0.218E-01 s, Total Time:      45.30 s
       Pressure Iterations: 2
       Maximum Velocity Error:  0.26E-01 on Mesh 1 at (8,19,22)
       Maximum Pressure Error:  0.67E+02 on Mesh 1 at (11,14,17)
       ---------------------------------------------------------------
       Max CFL number:  0.90E+00 at (11,14,15)
       Max divergence:  0.46E+01 at (15,14,3)
       Min divergence: -0.73E+00 at (12,14,17)
       Max VN number:   0.73E+00 at (29,14,18)
       Total Heat Release Rate:             63.536 kW
       Radiation Loss to Boundaries:       -20.537 kW
 
       Time Step    2400   October 26, 2022  21:12:22
       Step Size:    0.210E-01 s, Total Time:      47.55 s
       Pressure Iterations: 2
       Maximum Velocity Error:  0.12E-01 on Mesh 1 at (4,19,22)
       Maximum Pressure Error:  0.21E+02 on Mesh 1 at (14,16,3)
       ---------------------------------------------------------------
       Max CFL number:  0.87E+00 at (13,14,13)
       Max divergence:  0.45E+01 at (15,14,3)
       Min divergence: -0.10E+01 at (14,15,7)
       Max VN number:   0.80E+00 at (29,13,18)
       Total Heat Release Rate:             62.775 kW
       Radiation Loss to Boundaries:       -19.661 kW
 
       Time Step    2500   October 26, 2022  21:12:29
       Step Size:    0.231E-01 s, Total Time:      49.83 s
       Pressure Iterations: 2
       Maximum Velocity Error:  0.17E-01 on Mesh 1 at (9,15,22)
       Maximum Pressure Error:  0.20E+02 on Mesh 1 at (13,18,9)
       ---------------------------------------------------------------
       Max CFL number:  0.86E+00 at (11,17,12)
       Max divergence:  0.44E+01 at (15,15,3)
       Min divergence: -0.79E+00 at (13,16,8)
       Max VN number:   0.69E+00 at (29,15,18)
       Total Heat Release Rate:             62.781 kW
       Radiation Loss to Boundaries:       -19.717 kW
 
       Time Step    2600   October 26, 2022  21:12:36
       Step Size:    0.247E-01 s, Total Time:      52.16 s
       Pressure Iterations: 2
       Maximum Velocity Error:  0.19E-01 on Mesh 1 at (13,15,22)
       Maximum Pressure Error:  0.44E+02 on Mesh 1 at (12,13,9)
       ---------------------------------------------------------------
       Max CFL number:  0.94E+00 at (13,16,20)
       Max divergence:  0.48E+01 at (16,14,3)
       Min divergence: -0.88E+00 at (12,13,9)
       Max VN number:   0.86E+00 at (29,13,18)
       Total Heat Release Rate:             62.542 kW
       Radiation Loss to Boundaries:       -19.467 kW
 
       Time Step    2700   October 26, 2022  21:12:43
       Step Size:    0.243E-01 s, Total Time:      54.65 s
       Pressure Iterations: 2
       Maximum Velocity Error:  0.23E-01 on Mesh 1 at (16,15,2)
       Maximum Pressure Error:  0.59E+02 on Mesh 1 at (13,15,3)
       ---------------------------------------------------------------
       Max CFL number:  0.83E+00 at (13,12,17)
       Max divergence:  0.65E+01 at (16,15,3)
       Min divergence: -0.72E+00 at (12,16,8)
       Max VN number:   0.92E+00 at (29,13,18)
       Total Heat Release Rate:             65.111 kW
       Radiation Loss to Boundaries:       -19.945 kW
 
       Time Step    2800   October 26, 2022  21:12:50
       Step Size:    0.198E-01 s, Total Time:      56.99 s
       Pressure Iterations: 2
       Maximum Velocity Error:  0.16E-01 on Mesh 1 at (7,18,22)
       Maximum Pressure Error:  0.28E+02 on Mesh 1 at (11,17,10)
       ---------------------------------------------------------------
       Max CFL number:  0.71E+00 at (13,16,8)
       Max divergence:  0.45E+01 at (13,14,3)
       Min divergence: -0.84E+00 at (13,17,8)
       Max VN number:   0.83E+00 at (29,16,18)
       Total Heat Release Rate:             63.533 kW
       Radiation Loss to Boundaries:       -19.854 kW
 
       Time Step    2900   October 26, 2022  21:13:10
       Step Size:    0.247E-01 s, Total Time:      59.21 s
       Pressure Iterations: 2
       Maximum Velocity Error:  0.19E-01 on Mesh 1 at (11,18,22)
       Maximum Pressure Error:  0.39E+02 on Mesh 1 at (16,15,3)
       ---------------------------------------------------------------
       Max CFL number:  0.95E+00 at (13,16,13)
       Max divergence:  0.55E+01 at (14,13,3)
       Min divergence: -0.73E+00 at (14,13,8)
       Max VN number:   0.82E+00 at (29,15,18)
       Total Heat Release Rate:             64.726 kW
       Radiation Loss to Boundaries:       -20.864 kW
 
       Time Step    3000   October 26, 2022  21:13:17
       Step Size:    0.254E-01 s, Total Time:      61.59 s
       Pressure Iterations: 1
       Maximum Velocity Error:  0.46E-01 on Mesh 1 at (12,18,22)
       Maximum Pressure Error:  0.13E+02 on Mesh 1 at (13,15,7)
       ---------------------------------------------------------------
       Max CFL number:  0.82E+00 at (12,16,19)
       Max divergence:  0.47E+01 at (15,14,3)
       Min divergence: -0.73E+00 at (14,16,7)
       Max VN number:   0.85E+00 at (29,15,18)
       Total Heat Release Rate:             63.908 kW
       Radiation Loss to Boundaries:       -21.539 kW
 
       Time Step    3100   October 26, 2022  21:13:32
       Step Size:    0.229E-01 s, Total Time:      64.00 s
       Pressure Iterations: 2
       Maximum Velocity Error:  0.13E-01 on Mesh 1 at (13,13,22)
       Maximum Pressure Error:  0.46E+02 on Mesh 1 at (13,16,9)
       ---------------------------------------------------------------
       Max CFL number:  0.91E+00 at (12,14,19)
       Max divergence:  0.46E+01 at (15,14,3)
       Min divergence: -0.16E+01 at (14,13,8)
       Max VN number:   0.80E+00 at (29,16,18)
       Total Heat Release Rate:             63.176 kW
       Radiation Loss to Boundaries:       -20.359 kW
 
       Time Step    3200   October 26, 2022  21:13:39
       Step Size:    0.248E-01 s, Total Time:      66.30 s
       Pressure Iterations: 2
       Maximum Velocity Error:  0.22E-01 on Mesh 1 at (12,13,22)
       Maximum Pressure Error:  0.20E+02 on Mesh 1 at (13,14,11)
       ---------------------------------------------------------------
       Max CFL number:  0.85E+00 at (13,15,8)
       Max divergence:  0.43E+01 at (15,15,3)
       Min divergence: -0.97E+00 at (13,13,7)
       Max VN number:   0.90E+00 at (29,13,18)
       Total Heat Release Rate:             62.041 kW
       Radiation Loss to Boundaries:       -20.679 kW
 
       Time Step    3300   October 26, 2022  21:13:46
       Step Size:    0.214E-01 s, Total Time:      68.66 s
       Pressure Iterations: 2
       Maximum Velocity Error:  0.10E-01 on Mesh 1 at (11,17,22)
       Maximum Pressure Error:  0.48E+02 on Mesh 1 at (13,14,13)
       ---------------------------------------------------------------
       Max CFL number:  0.95E+00 at (13,13,10)
       Max divergence:  0.48E+01 at (15,15,3)
       Min divergence: -0.12E+01 at (13,15,9)
       Max VN number:   0.78E+00 at (29,16,18)
       Total Heat Release Rate:             62.415 kW
       Radiation Loss to Boundaries:       -19.806 kW
 
       Time Step    3400   October 26, 2022  21:13:53
       Step Size:    0.205E-01 s, Total Time:      70.83 s
       Pressure Iterations: 1
       Maximum Velocity Error:  0.43E-01 on Mesh 1 at (10,15,22)
       Maximum Pressure Error:  0.53E+02 on Mesh 1 at (13,16,14)
       ---------------------------------------------------------------
       Max CFL number:  0.90E+00 at (13,16,14)
       Max divergence:  0.48E+01 at (15,14,3)
       Min divergence: -0.10E+01 at (14,16,7)
       Max VN number:   0.71E+00 at (29,13,18)
       Total Heat Release Rate:             63.591 kW
       Radiation Loss to Boundaries:       -20.532 kW
 
       Time Step    3500   October 26, 2022  21:13:59
       Step Size:    0.216E-01 s, Total Time:      72.96 s
       Pressure Iterations: 2
       Maximum Velocity Error:  0.26E-01 on Mesh 1 at (9,14,22)
       Maximum Pressure Error:  0.31E+02 on Mesh 1 at (13,13,9)
       ---------------------------------------------------------------
       Max CFL number:  0.76E+00 at (8,15,22)
       Max divergence:  0.44E+01 at (15,14,3)
       Min divergence: -0.10E+01 at (13,15,9)
       Max VN number:   0.96E+00 at (29,13,18)
       Total Heat Release Rate:             64.067 kW
       Radiation Loss to Boundaries:       -20.928 kW
 
       Time Step    3600   October 26, 2022  21:14:06
       Step Size:    0.238E-01 s, Total Time:      75.25 s
       Pressure Iterations: 1
       Maximum Velocity Error:  0.28E-01 on Mesh 1 at (11,15,22)
       Maximum Pressure Error:  0.37E+02 on Mesh 1 at (13,13,6)
       ---------------------------------------------------------------
       Max CFL number:  0.84E+00 at (12,16,15)
       Max divergence:  0.47E+01 at (13,16,3)
       Min divergence: -0.84E+00 at (15,13,8)
       Max VN number:   0.77E+00 at (29,15,18)
       Total Heat Release Rate:             62.670 kW
       Radiation Loss to Boundaries:       -20.825 kW
 
       Time Step    3700   October 26, 2022  21:14:13
       Step Size:    0.219E-01 s, Total Time:      77.40 s
       Pressure Iterations: 1
       Maximum Velocity Error:  0.33E-01 on Mesh 1 at (16,18,22)
       Maximum Pressure Error:  0.22E+02 on Mesh 1 at (13,13,11)
       ---------------------------------------------------------------
       Max CFL number:  0.77E+00 at (13,13,10)
       Max divergence:  0.48E+01 at (15,15,3)
       Min divergence: -0.10E+01 at (13,13,8)
       Max VN number:   0.95E+00 at (29,13,18)
       Total Heat Release Rate:             63.452 kW
       Radiation Loss to Boundaries:       -21.425 kW
 
       Time Step    3800   October 26, 2022  21:14:20
       Step Size:    0.210E-01 s, Total Time:      79.72 s
       Pressure Iterations: 2
       Maximum Velocity Error:  0.21E-01 on Mesh 1 at (13,17,22)
       Maximum Pressure Error:  0.28E+02 on Mesh 1 at (12,15,8)
       ---------------------------------------------------------------
       Max CFL number:  0.82E+00 at (13,16,20)
       Max divergence:  0.46E+01 at (15,15,3)
       Min divergence: -0.12E+01 at (13,16,8)
       Max VN number:   0.72E+00 at (29,13,18)
       Total Heat Release Rate:             62.185 kW
       Radiation Loss to Boundaries:       -20.591 kW
 
       Time Step    3900   October 26, 2022  21:14:27
       Step Size:    0.214E-01 s, Total Time:      81.94 s
       Pressure Iterations: 2
       Maximum Velocity Error:  0.16E-01 on Mesh 1 at (14,11,22)
       Maximum Pressure Error:  0.36E+02 on Mesh 1 at (13,17,8)
       ---------------------------------------------------------------
       Max CFL number:  0.76E+00 at (13,13,13)
       Max divergence:  0.43E+01 at (15,13,3)
       Min divergence: -0.82E+00 at (13,17,8)
       Max VN number:   0.86E+00 at (29,13,18)
       Total Heat Release Rate:             64.325 kW
       Radiation Loss to Boundaries:       -21.355 kW
 
       Time Step    4000   October 26, 2022  21:14:34
       Step Size:    0.235E-01 s, Total Time:      84.17 s
       Pressure Iterations: 1
       Maximum Velocity Error:  0.39E-01 on Mesh 1 at (9,11,22)
       Maximum Pressure Error:  0.59E+02 on Mesh 1 at (12,14,10)
       ---------------------------------------------------------------
       Max CFL number:  0.96E+00 at (12,14,9)
       Max divergence:  0.44E+01 at (15,15,3)
       Min divergence: -0.14E+01 at (12,15,12)
       Max VN number:   0.81E+00 at (29,15,18)
       Total Heat Release Rate:             63.189 kW
       Radiation Loss to Boundaries:       -20.248 kW
 
       Time Step    4100   October 26, 2022  21:14:41
       Step Size:    0.222E-01 s, Total Time:      86.41 s
       Pressure Iterations: 2
       Maximum Velocity Error:  0.13E-01 on Mesh 1 at (7,9,22)
       Maximum Pressure Error:  0.21E+02 on Mesh 1 at (14,17,8)
       ---------------------------------------------------------------
       Max CFL number:  0.80E+00 at (14,17,9)
       Max divergence:  0.48E+01 at (15,15,3)
       Min divergence: -0.14E+01 at (14,15,6)
       Max VN number:   0.82E+00 at (29,14,18)
       Total Heat Release Rate:             66.056 kW
       Radiation Loss to Boundaries:       -21.925 kW
 
       Time Step    4200   October 26, 2022  21:14:48
       Step Size:    0.219E-01 s, Total Time:      88.58 s
       Pressure Iterations: 2
       Maximum Velocity Error:  0.16E-01 on Mesh 1 at (11,13,22)
       Maximum Pressure Error:  0.19E+02 on Mesh 1 at (10,15,12)
       ---------------------------------------------------------------
       Max CFL number:  0.85E+00 at (12,15,16)
       Max divergence:  0.45E+01 at (15,15,3)
       Min divergence: -0.66E+00 at (14,14,6)
       Max VN number:   0.80E+00 at (29,13,18)
       Total Heat Release Rate:             63.265 kW
       Radiation Loss to Boundaries:       -20.512 kW
 
       Time Step    4300   October 26, 2022  21:14:54
       Step Size:    0.251E-01 s, Total Time:      90.90 s
       Pressure Iterations: 2
       Maximum Velocity Error:  0.95E-02 on Mesh 1 at (9,11,22)
       Maximum Pressure Error:  0.63E+02 on Mesh 1 at (14,14,3)
       ---------------------------------------------------------------
       Max CFL number:  0.86E+00 at (13,17,14)
       Max divergence:  0.46E+01 at (15,15,3)
       Min divergence: -0.10E+01 at (13,16,8)
       Max VN number:   0.81E+00 at (29,13,18)
       Total Heat Release Rate:             59.952 kW
       Radiation Loss to Boundaries:       -19.627 kW
 
       Time Step    4400   October 26, 2022  21:15:01
       Step Size:    0.243E-01 s, Total Time:      93.32 s
       Pressure Iterations: 2
       Maximum Velocity Error:  0.12E-01 on Mesh 1 at (12,18,22)
       Maximum Pressure Error:  0.53E+02 on Mesh 1 at (13,13,6)
       ---------------------------------------------------------------
       Max CFL number:  0.82E+00 at (14,15,8)
       Max divergence:  0.44E+01 at (15,14,3)
       Min divergence: -0.13E+01 at (14,16,8)
       Max VN number:   0.84E+00 at (29,15,18)
       Total Heat Release Rate:             61.869 kW
       Radiation Loss to Boundaries:       -20.494 kW
 
       Time Step    4500   October 26, 2022  21:15:08
       Step Size:    0.214E-01 s, Total Time:      95.45 s
       Pressure Iterations: 2
       Maximum Velocity Error:  0.97E-02 on Mesh 1 at (13,15,22)
       Maximum Pressure Error:  0.19E+02 on Mesh 1 at (13,14,11)
       ---------------------------------------------------------------
       Max CFL number:  0.82E+00 at (13,14,9)
       Max divergence:  0.43E+01 at (15,14,3)
       Min divergence: -0.85E+00 at (14,13,7)
       Max VN number:   0.82E+00 at (29,16,18)
       Total Heat Release Rate:             61.742 kW
       Radiation Loss to Boundaries:       -20.498 kW
 
       Time Step    4600   October 26, 2022  21:15:15
       Step Size:    0.235E-01 s, Total Time:      97.79 s
       Pressure Iterations: 1
       Maximum Velocity Error:  0.48E-01 on Mesh 1 at (11,12,22)
       Maximum Pressure Error:  0.41E+02 on Mesh 1 at (13,14,8)
       ---------------------------------------------------------------
       Max CFL number:  0.78E+00 at (13,14,6)
       Max divergence:  0.47E+01 at (15,14,3)
       Min divergence: -0.12E+01 at (13,14,7)
       Max VN number:   0.90E+00 at (29,13,18)
       Total Heat Release Rate:             62.420 kW
       Radiation Loss to Boundaries:       -20.591 kW
 
       Time Step    4700   October 26, 2022  21:15:22
       Step Size:    0.208E-01 s, Total Time:     100.03 s
       Pressure Iterations: 2
       Maximum Velocity Error:  0.10E-01 on Mesh 1 at (10,15,22)
       Maximum Pressure Error:  0.23E+02 on Mesh 1 at (13,12,17)
       ---------------------------------------------------------------
       Max CFL number:  0.82E+00 at (13,13,11)
       Max divergence:  0.46E+01 at (15,14,3)
       Min divergence: -0.77E+00 at (13,15,8)
       Max VN number:   0.91E+00 at (29,13,18)
       Total Heat Release Rate:             62.950 kW
       Radiation Loss to Boundaries:       -19.634 kW
 
       Time Step    4800   October 26, 2022  21:15:29
       Step Size:    0.195E-01 s, Total Time:     102.19 s
       Pressure Iterations: 2
       Maximum Velocity Error:  0.98E-02 on Mesh 1 at (11,12,22)
       Maximum Pressure Error:  0.54E+02 on Mesh 1 at (13,16,9)
       ---------------------------------------------------------------
       Max CFL number:  0.93E+00 at (13,16,10)
       Max divergence:  0.50E+01 at (14,15,3)
       Min divergence: -0.14E+01 at (13,16,9)
       Max VN number:   0.67E+00 at (29,14,18)
       Total Heat Release Rate:             64.452 kW
       Radiation Loss to Boundaries:       -20.526 kW
 
       Time Step    4900   October 26, 2022  21:15:36
       Step Size:    0.223E-01 s, Total Time:     104.24 s
       Pressure Iterations: 2
       Maximum Velocity Error:  0.15E-01 on Mesh 1 at (10,17,22)
       Maximum Pressure Error:  0.34E+02 on Mesh 1 at (14,16,8)
       ---------------------------------------------------------------
       Max CFL number:  0.88E+00 at (14,16,7)
       Max divergence:  0.51E+01 at (15,14,3)
       Min divergence: -0.10E+01 at (14,16,7)
       Max VN number:   0.75E+00 at (29,14,18)
       Total Heat Release Rate:             61.174 kW
       Radiation Loss to Boundaries:       -20.300 kW
 
       Time Step    5000   October 26, 2022  21:15:43
       Step Size:    0.241E-01 s, Total Time:     106.50 s
       Pressure Iterations: 2
       Maximum Velocity Error:  0.14E-01 on Mesh 1 at (9,16,22)
       Maximum Pressure Error:  0.66E+02 on Mesh 1 at (13,14,6)
       ---------------------------------------------------------------
       Max CFL number:  0.83E+00 at (14,16,7)
       Max divergence:  0.45E+01 at (15,14,3)
       Min divergence: -0.12E+01 at (14,16,7)
       Max VN number:   0.90E+00 at (29,13,18)
       Total Heat Release Rate:             61.304 kW
       Radiation Loss to Boundaries:       -20.114 kW
 
       Time Step    5100   October 26, 2022  21:15:50
       Step Size:    0.210E-01 s, Total Time:     108.76 s
       Pressure Iterations: 2
       Maximum Velocity Error:  0.18E-01 on Mesh 1 at (14,14,22)
       Maximum Pressure Error:  0.35E+02 on Mesh 1 at (13,15,9)
       ---------------------------------------------------------------
       Max CFL number:  0.73E+00 at (14,16,8)
       Max divergence:  0.47E+01 at (13,14,3)
       Min divergence: -0.12E+01 at (14,15,11)
       Max VN number:   0.88E+00 at (29,13,18)
       Total Heat Release Rate:             61.565 kW
       Radiation Loss to Boundaries:       -19.592 kW
 
       Time Step    5200   October 26, 2022  21:15:56
       Step Size:    0.250E-01 s, Total Time:     111.15 s
       Pressure Iterations: 1
       Maximum Velocity Error:  0.47E-01 on Mesh 1 at (7,14,22)
       Maximum Pressure Error:  0.32E+02 on Mesh 1 at (12,13,7)
       ---------------------------------------------------------------
       Max CFL number:  0.87E+00 at (13,14,8)
       Max divergence:  0.44E+01 at (15,15,3)
       Min divergence: -0.81E+00 at (12,13,7)
       Max VN number:   0.96E+00 at (29,14,18)
       Total Heat Release Rate:             61.043 kW
       Radiation Loss to Boundaries:       -20.172 kW
 
       Time Step    5300   October 26, 2022  21:16:03
       Step Size:    0.244E-01 s, Total Time:     113.51 s
       Pressure Iterations: 2
       Maximum Velocity Error:  0.11E-01 on Mesh 1 at (12,11,22)
       Maximum Pressure Error:  0.32E+02 on Mesh 1 at (13,13,5)
       ---------------------------------------------------------------
       Max CFL number:  0.85E+00 at (13,14,14)
       Max divergence:  0.44E+01 at (15,13,3)
       Min divergence: -0.14E+01 at (14,16,7)
       Max VN number:   0.99E+00 at (29,13,18)
       Total Heat Release Rate:             62.116 kW
       Radiation Loss to Boundaries:       -21.768 kW
 
       Time Step    5400   October 26, 2022  21:16:10
       Step Size:    0.239E-01 s, Total Time:     115.75 s
       Pressure Iterations: 2
       Maximum Velocity Error:  0.16E-01 on Mesh 1 at (13,11,22)
       Maximum Pressure Error:  0.46E+02 on Mesh 1 at (13,15,9)
       ---------------------------------------------------------------
       Max CFL number:  0.97E+00 at (14,11,19)
       Max divergence:  0.45E+01 at (15,15,3)
       Min divergence: -0.11E+01 at (14,16,10)
       Max VN number:   0.83E+00 at (29,16,18)
       Total Heat Release Rate:             61.179 kW
       Radiation Loss to Boundaries:       -20.137 kW
 
       Time Step    5500   October 26, 2022  21:16:17
       Step Size:    0.212E-01 s, Total Time:     117.89 s
       Pressure Iterations: 2
       Maximum Velocity Error:  0.21E-01 on Mesh 1 at (13,12,22)
       Maximum Pressure Error:  0.29E+02 on Mesh 1 at (15,15,11)
       ---------------------------------------------------------------
       Max CFL number:  0.90E+00 at (15,15,12)
       Max divergence:  0.47E+01 at (15,15,3)
       Min divergence: -0.11E+01 at (15,13,7)
       Max VN number:   0.79E+00 at (29,14,18)
       Total Heat Release Rate:             62.376 kW
       Radiation Loss to Boundaries:       -20.460 kW
 
       Time Step    5600   October 26, 2022  21:16:24
       Step Size:    0.224E-01 s, Total Time:     120.15 s
       Pressure Iterations: 2
       Maximum Velocity Error:  0.14E-01 on Mesh 1 at (13,14,22)
       Maximum Pressure Error:  0.33E+02 on Mesh 1 at (12,14,8)
       ---------------------------------------------------------------
       Max CFL number:  0.83E+00 at (12,14,13)
       Max divergence:  0.46E+01 at (14,16,3)
       Min divergence: -0.13E+01 at (12,14,8)
       Max VN number:   0.83E+00 at (29,15,18)
       Total Heat Release Rate:             63.290 kW
       Radiation Loss to Boundaries:       -20.498 kW
 
       Time Step    5700   October 26, 2022  21:16:31
       Step Size:    0.238E-01 s, Total Time:     122.49 s
       Pressure Iterations: 2
       Maximum Velocity Error:  0.13E-01 on Mesh 1 at (10,13,22)
       Maximum Pressure Error:  0.36E+02 on Mesh 1 at (12,13,11)
       ---------------------------------------------------------------
       Max CFL number:  0.89E+00 at (12,13,9)
       Max divergence:  0.44E+01 at (15,14,3)
       Min divergence: -0.82E+00 at (13,16,9)
       Max VN number:   0.82E+00 at (29,16,18)
       Total Heat Release Rate:             62.913 kW
       Radiation Loss to Boundaries:       -21.216 kW
 
       Time Step    5800   October 26, 2022  21:16:38
       Step Size:    0.230E-01 s, Total Time:     124.68 s
       Pressure Iterations: 1
       Maximum Velocity Error:  0.33E-01 on Mesh 1 at (1,18,22)
       Maximum Pressure Error:  0.72E+02 on Mesh 1 at (14,13,3)
       ---------------------------------------------------------------
       Max CFL number:  0.94E+00 at (13,14,15)
       Max divergence:  0.44E+01 at (14,13,3)
       Min divergence: -0.12E+01 at (14,13,8)
       Max VN number:   0.83E+00 at (29,14,18)
       Total Heat Release Rate:             63.414 kW
       Radiation Loss to Boundaries:       -21.461 kW
 
       Time Step    5900   October 26, 2022  21:16:45
       Step Size:    0.245E-01 s, Total Time:     126.99 s
       Pressure Iterations: 1
       Maximum Velocity Error:  0.41E-01 on Mesh 1 at (9,11,22)
       Maximum Pressure Error:  0.29E+02 on Mesh 1 at (14,15,7)
       ---------------------------------------------------------------
       Max CFL number:  0.98E+00 at (14,14,8)
       Max divergence:  0.46E+01 at (15,14,3)
       Min divergence: -0.10E+01 at (14,14,8)
       Max VN number:   0.94E+00 at (29,14,18)
       Total Heat Release Rate:             64.459 kW
       Radiation Loss to Boundaries:       -20.406 kW
 
       Time Step    6000   October 26, 2022  21:16:51
       Step Size:    0.241E-01 s, Total Time:     129.31 s
       Pressure Iterations: 2
       Maximum Velocity Error:  0.19E-01 on Mesh 1 at (16,13,22)
       Maximum Pressure Error:  0.65E+02 on Mesh 1 at (13,14,7)
       ---------------------------------------------------------------
       Max CFL number:  0.88E+00 at (13,15,8)
       Max divergence:  0.44E+01 at (13,16,3)
       Min divergence: -0.11E+01 at (14,17,7)
       Max VN number:   0.65E+00 at (29,14,18)
       Total Heat Release Rate:             64.012 kW
       Radiation Loss to Boundaries:       -20.918 kW
 
       Time Step    6100   October 26, 2022  21:16:58
       Step Size:    0.232E-01 s, Total Time:     131.49 s
       Pressure Iterations: 2
       Maximum Velocity Error:  0.19E-01 on Mesh 1 at (12,13,22)
       Maximum Pressure Error:  0.16E+02 on Mesh 1 at (12,17,18)
       ---------------------------------------------------------------
       Max CFL number:  0.86E+00 at (12,17,18)
       Max divergence:  0.46E+01 at (15,14,3)
       Min divergence: -0.98E+00 at (13,16,8)
       Max VN number:   0.86E+00 at (29,14,18)
       Total Heat Release Rate:             63.197 kW
       Radiation Loss to Boundaries:       -20.739 kW
 
       Time Step    6200   October 26, 2022  21:17:05
       Step Size:    0.224E-01 s, Total Time:     133.77 s
       Pressure Iterations: 2
       Maximum Velocity Error:  0.13E-01 on Mesh 1 at (13,18,22)
       Maximum Pressure Error:  0.46E+02 on Mesh 1 at (13,15,12)
       ---------------------------------------------------------------
       Max CFL number:  0.87E+00 at (13,14,10)
       Max divergence:  0.44E+01 at (15,15,3)
       Min divergence: -0.12E+01 at (13,14,9)
       Max VN number:   0.78E+00 at (29,14,18)
       Total Heat Release Rate:             62.736 kW
       Radiation Loss to Boundaries:       -20.353 kW
 
       Time Step    6300   October 26, 2022  21:17:12
       Step Size:    0.219E-01 s, Total Time:     135.94 s
       Pressure Iterations: 2
       Maximum Velocity Error:  0.20E-01 on Mesh 1 at (11,16,22)
       Maximum Pressure Error:  0.28E+02 on Mesh 1 at (13,15,11)
       ---------------------------------------------------------------
       Max CFL number:  0.86E+00 at (13,15,11)
       Max divergence:  0.43E+01 at (15,15,3)
       Min divergence: -0.62E+00 at (14,17,6)
       Max VN number:   0.87E+00 at (29,13,18)
       Total Heat Release Rate:             62.812 kW
       Radiation Loss to Boundaries:       -20.315 kW
 
       Time Step    6400   October 26, 2022  21:17:19
       Step Size:    0.238E-01 s, Total Time:     138.23 s
       Pressure Iterations: 2
       Maximum Velocity Error:  0.82E-02 on Mesh 1 at (14,14,22)
       Maximum Pressure Error:  0.42E+02 on Mesh 1 at (13,14,8)
       ---------------------------------------------------------------
       Max CFL number:  0.87E+00 at (13,14,16)
       Max divergence:  0.45E+01 at (15,14,3)
       Min divergence: -0.16E+01 at (13,14,7)
       Max VN number:   0.87E+00 at (29,16,18)
       Total Heat Release Rate:             63.833 kW
       Radiation Loss to Boundaries:       -21.268 kW
 
       Time Step    6500   October 26, 2022  21:17:26
       Step Size:    0.215E-01 s, Total Time:     140.44 s
       Pressure Iterations: 2
       Maximum Velocity Error:  0.14E-01 on Mesh 1 at (8,13,22)
       Maximum Pressure Error:  0.40E+02 on Mesh 1 at (14,15,6)
       ---------------------------------------------------------------
       Max CFL number:  0.77E+00 at (14,15,5)
       Max divergence:  0.48E+01 at (15,14,3)
       Min divergence: -0.91E+00 at (14,16,10)
       Max VN number:   0.76E+00 at (29,15,18)
       Total Heat Release Rate:             61.174 kW
       Radiation Loss to Boundaries:       -19.529 kW
 
       Time Step    6600   October 26, 2022  21:17:33
       Step Size:    0.209E-01 s, Total Time:     142.65 s
       Pressure Iterations: 2
       Maximum Velocity Error:  0.12E-01 on Mesh 1 at (8,15,22)
       Maximum Pressure Error:  0.34E+02 on Mesh 1 at (14,16,15)
       ---------------------------------------------------------------
       Max CFL number:  0.82E+00 at (14,16,7)
       Max divergence:  0.49E+01 at (15,15,3)
       Min divergence: -0.11E+01 at (14,16,8)
       Max VN number:   0.93E+00 at (29,16,18)
       Total Heat Release Rate:             63.037 kW
       Radiation Loss to Boundaries:       -20.658 kW
 
       Time Step    6700   October 26, 2022  21:17:40
       Step Size:    0.230E-01 s, Total Time:     144.82 s
       Pressure Iterations: 2
       Maximum Velocity Error:  0.15E-01 on Mesh 1 at (12,20,22)
       Maximum Pressure Error:  0.51E+02 on Mesh 1 at (12,14,9)
       ---------------------------------------------------------------
       Max CFL number:  0.86E+00 at (13,14,12)
       Max divergence:  0.45E+01 at (15,15,3)
       Min divergence: -0.92E+00 at (12,14,8)
       Max VN number:   0.87E+00 at (29,13,18)
       Total Heat Release Rate:             61.203 kW
       Radiation Loss to Boundaries:       -20.055 kW
 
       Time Step    6800   October 26, 2022  21:17:46
       Step Size:    0.225E-01 s, Total Time:     147.07 s
       Pressure Iterations: 2
       Maximum Velocity Error:  0.19E-01 on Mesh 1 at (13,19,22)
       Maximum Pressure Error:  0.52E+02 on Mesh 1 at (13,16,8)
       ---------------------------------------------------------------
       Max CFL number:  0.82E+00 at (14,14,12)
       Max divergence:  0.44E+01 at (15,14,3)
       Min divergence: -0.14E+01 at (13,16,8)
       Max VN number:   0.87E+00 at (29,13,18)
       Total Heat Release Rate:             62.977 kW
       Radiation Loss to Boundaries:       -20.406 kW
 
       Time Step    6900   October 26, 2022  21:17:53
       Step Size:    0.220E-01 s, Total Time:     149.30 s
       Pressure Iterations: 2
       Maximum Velocity Error:  0.71E-02 on Mesh 1 at (12,18,22)
       Maximum Pressure Error:  0.25E+02 on Mesh 1 at (15,12,7)
       ---------------------------------------------------------------
       Max CFL number:  0.75E+00 at (15,13,8)
       Max divergence:  0.47E+01 at (16,13,3)
       Min divergence: -0.11E+01 at (15,13,8)
       Max VN number:   0.86E+00 at (29,13,18)
       Total Heat Release Rate:             63.514 kW
       Radiation Loss to Boundaries:       -20.765 kW
 
       Time Step    7000   October 26, 2022  21:18:00
       Step Size:    0.205E-01 s, Total Time:     151.52 s
       Pressure Iterations: 1
       Maximum Velocity Error:  0.45E-01 on Mesh 1 at (3,13,22)
       Maximum Pressure Error:  0.67E+02 on Mesh 1 at (14,13,10)
       ---------------------------------------------------------------
       Max CFL number:  0.87E+00 at (14,13,8)
       Max divergence:  0.43E+01 at (15,16,3)
       Min divergence: -0.11E+01 at (14,14,7)
       Max VN number:   0.91E+00 at (29,16,18)
       Total Heat Release Rate:             63.602 kW
       Radiation Loss to Boundaries:       -20.736 kW
 
       Time Step    7100   October 26, 2022  21:18:07
       Step Size:    0.245E-01 s, Total Time:     153.66 s
       Pressure Iterations: 1
       Maximum Velocity Error:  0.44E-01 on Mesh 1 at (12,15,22)
       Maximum Pressure Error:  0.22E+02 on Mesh 1 at (13,13,11)
       ---------------------------------------------------------------
       Max CFL number:  0.84E+00 at (11,15,17)
       Max divergence:  0.43E+01 at (15,16,3)
       Min divergence: -0.78E+00 at (13,14,7)
       Max VN number:   0.90E+00 at (29,14,18)
       Total Heat Release Rate:             63.137 kW
       Radiation Loss to Boundaries:       -21.036 kW
 
       Time Step    7200   October 26, 2022  21:18:14
       Step Size:    0.235E-01 s, Total Time:     156.03 s
       Pressure Iterations: 2
       Maximum Velocity Error:  0.15E-01 on Mesh 1 at (14,17,22)
       Maximum Pressure Error:  0.73E+02 on Mesh 1 at (14,13,9)
       ---------------------------------------------------------------
       Max CFL number:  0.98E+00 at (14,13,9)
       Max divergence:  0.56E+01 at (15,14,3)
       Min divergence: -0.11E+01 at (14,16,10)
       Max VN number:   0.79E+00 at (29,13,18)
       Total Heat Release Rate:             62.449 kW
       Radiation Loss to Boundaries:       -19.960 kW
 
       Time Step    7300   October 26, 2022  21:18:21
       Step Size:    0.221E-01 s, Total Time:     158.20 s
       Pressure Iterations: 2
       Maximum Velocity Error:  0.13E-01 on Mesh 1 at (14,10,22)
       Maximum Pressure Error:  0.13E+02 on Mesh 1 at (14,18,19)
       ---------------------------------------------------------------
       Max CFL number:  0.77E+00 at (14,18,18)
       Max divergence:  0.47E+01 at (15,15,3)
       Min divergence: -0.14E+01 at (14,16,7)
       Max VN number:   0.98E+00 at (29,16,18)
       Total Heat Release Rate:             63.117 kW
       Radiation Loss to Boundaries:       -20.689 kW
 
       Time Step    7400   October 26, 2022  21:18:28
       Step Size:    0.212E-01 s, Total Time:     160.44 s
       Pressure Iterations: 1
       Maximum Velocity Error:  0.39E-01 on Mesh 1 at (11,15,22)
       Maximum Pressure Error:  0.44E+02 on Mesh 1 at (16,13,17)
       ---------------------------------------------------------------
       Max CFL number:  0.98E+00 at (16,13,16)
       Max divergence:  0.49E+01 at (15,15,3)
       Min divergence: -0.83E+00 at (15,14,7)
       Max VN number:   0.79E+00 at (29,16,18)
       Total Heat Release Rate:             63.367 kW
       Radiation Loss to Boundaries:       -20.303 kW
 
       Time Step    7500   October 26, 2022  21:18:35
       Step Size:    0.219E-01 s, Total Time:     162.54 s
       Pressure Iterations: 2
       Maximum Velocity Error:  0.93E-02 on Mesh 1 at (12,18,22)
       Maximum Pressure Error:  0.34E+02 on Mesh 1 at (13,12,11)
       ---------------------------------------------------------------
       Max CFL number:  0.88E+00 at (13,12,10)
       Max divergence:  0.47E+01 at (15,13,3)
       Min divergence: -0.76E+00 at (13,13,8)
       Max VN number:   0.75E+00 at (29,14,18)
       Total Heat Release Rate:             62.542 kW
       Radiation Loss to Boundaries:       -20.079 kW
 
       Time Step    7600   October 26, 2022  21:18:41
       Step Size:    0.236E-01 s, Total Time:     164.80 s
       Pressure Iterations: 2
       Maximum Velocity Error:  0.14E-01 on Mesh 1 at (13,13,22)
       Maximum Pressure Error:  0.32E+02 on Mesh 1 at (13,16,6)
       ---------------------------------------------------------------
       Max CFL number:  0.86E+00 at (13,14,19)
       Max divergence:  0.46E+01 at (15,14,3)
       Min divergence: -0.12E+01 at (14,15,7)
       Max VN number:   0.93E+00 at (29,14,18)
       Total Heat Release Rate:             62.588 kW
       Radiation Loss to Boundaries:       -20.635 kW
 
       Time Step    7700   October 26, 2022  21:18:48
       Step Size:    0.216E-01 s, Total Time:     166.88 s
       Pressure Iterations: 1
       Maximum Velocity Error:  0.44E-01 on Mesh 1 at (12,18,22)
       Maximum Pressure Error:  0.21E+02 on Mesh 1 at (13,16,4)
       ---------------------------------------------------------------
       Max CFL number:  0.72E+00 at (37,16,21)
       Max divergence:  0.49E+01 at (15,14,3)
       Min divergence: -0.15E+01 at (14,16,7)
       Max VN number:   0.87E+00 at (29,16,18)
       Total Heat Release Rate:             61.723 kW
       Radiation Loss to Boundaries:       -19.700 kW
 
       Time Step    7800   October 26, 2022  21:18:55
       Step Size:    0.235E-01 s, Total Time:     169.13 s
       Pressure Iterations: 2
       Maximum Velocity Error:  0.14E-01 on Mesh 1 at (22,0,22)
       Maximum Pressure Error:  0.30E+02 on Mesh 1 at (13,14,10)
       ---------------------------------------------------------------
       Max CFL number:  0.81E+00 at (13,14,9)
       Max divergence:  0.51E+01 at (16,16,3)
       Min divergence: -0.83E+00 at (13,14,9)
       Max VN number:   0.94E+00 at (29,16,18)
       Total Heat Release Rate:             62.538 kW
       Radiation Loss to Boundaries:       -20.087 kW
 
       Time Step    7900   October 26, 2022  21:19:02
       Step Size:    0.231E-01 s, Total Time:     171.37 s
       Pressure Iterations: 2
       Maximum Velocity Error:  0.12E-01 on Mesh 1 at (16,18,22)
       Maximum Pressure Error:  0.28E+02 on Mesh 1 at (15,16,7)
       ---------------------------------------------------------------
       Max CFL number:  0.78E+00 at (15,16,7)
       Max divergence:  0.42E+01 at (14,13,3)
       Min divergence: -0.93E+00 at (15,16,7)
       Max VN number:   0.96E+00 at (29,15,18)
       Total Heat Release Rate:             61.657 kW
       Radiation Loss to Boundaries:       -20.910 kW
 
       Time Step    8000   October 26, 2022  21:19:09
       Step Size:    0.218E-01 s, Total Time:     173.52 s
       Pressure Iterations: 2
       Maximum Velocity Error:  0.17E-01 on Mesh 1 at (16,14,2)
       Maximum Pressure Error:  0.47E+02 on Mesh 1 at (15,14,3)
       ---------------------------------------------------------------
       Max CFL number:  0.82E+00 at (12,14,20)
       Max divergence:  0.44E+01 at (15,15,3)
       Min divergence: -0.82E+00 at (14,16,7)
       Max VN number:   0.84E+00 at (29,15,18)
       Total Heat Release Rate:             62.881 kW
       Radiation Loss to Boundaries:       -20.969 kW
 
       Time Step    8100   October 26, 2022  21:19:16
       Step Size:    0.227E-01 s, Total Time:     175.82 s
       Pressure Iterations: 2
       Maximum Velocity Error:  0.13E-01 on Mesh 1 at (8,10,22)
       Maximum Pressure Error:  0.46E+02 on Mesh 1 at (13,16,8)
       ---------------------------------------------------------------
       Max CFL number:  0.84E+00 at (13,16,7)
       Max divergence:  0.49E+01 at (15,14,3)
       Min divergence: -0.12E+01 at (13,15,9)
       Max VN number:   0.91E+00 at (29,16,18)
       Total Heat Release Rate:             64.633 kW
       Radiation Loss to Boundaries:       -20.793 kW
 
       Time Step    8200   October 26, 2022  21:19:23
       Step Size:    0.235E-01 s, Total Time:     178.02 s
       Pressure Iterations: 1
       Maximum Velocity Error:  0.50E-01 on Mesh 1 at (15,13,22)
       Maximum Pressure Error:  0.31E+02 on Mesh 1 at (13,11,12)
       ---------------------------------------------------------------
       Max CFL number:  0.88E+00 at (13,13,11)
       Max divergence:  0.43E+01 at (15,14,3)
       Min divergence: -0.12E+01 at (13,15,8)
       Max VN number:   0.90E+00 at (29,16,18)
       Total Heat Release Rate:             62.418 kW
       Radiation Loss to Boundaries:       -20.366 kW
 
       Time Step    8300   October 26, 2022  21:19:30
       Step Size:    0.204E-01 s, Total Time:     180.29 s
       Pressure Iterations: 1
       Maximum Velocity Error:  0.37E-01 on Mesh 1 at (4,11,22)
       Maximum Pressure Error:  0.33E+02 on Mesh 1 at (14,12,9)
       ---------------------------------------------------------------
       Max CFL number:  0.79E+00 at (14,16,18)
       Max divergence:  0.45E+01 at (15,15,3)
       Min divergence: -0.96E+00 at (14,12,8)
       Max VN number:   0.91E+00 at (29,13,18)
       Total Heat Release Rate:             62.661 kW
       Radiation Loss to Boundaries:       -20.443 kW
 
       Time Step    8400   October 26, 2022  21:19:37
       Step Size:    0.215E-01 s, Total Time:     182.50 s
       Pressure Iterations: 2
       Maximum Velocity Error:  0.16E-01 on Mesh 1 at (4,16,22)
       Maximum Pressure Error:  0.14E+02 on Mesh 1 at (15,13,6)
       ---------------------------------------------------------------
       Max CFL number:  0.69E+00 at (37,15,20)
       Max divergence:  0.57E+01 at (15,15,3)
       Min divergence: -0.17E+01 at (14,15,6)
       Max VN number:   0.98E+00 at (29,13,18)
       Total Heat Release Rate:             61.982 kW
       Radiation Loss to Boundaries:       -20.127 kW
 
       Time Step    8500   October 26, 2022  21:19:43
       Step Size:    0.216E-01 s, Total Time:     184.57 s
       Pressure Iterations: 2
       Maximum Velocity Error:  0.17E-01 on Mesh 1 at (13,17,22)
       Maximum Pressure Error:  0.30E+02 on Mesh 1 at (14,14,11)
       ---------------------------------------------------------------
       Max CFL number:  0.79E+00 at (13,16,8)
       Max divergence:  0.48E+01 at (13,14,3)
       Min divergence: -0.10E+01 at (14,13,7)
       Max VN number:   0.95E+00 at (29,16,18)
       Total Heat Release Rate:             61.287 kW
       Radiation Loss to Boundaries:       -19.260 kW
 
       Time Step    8600   October 26, 2022  21:19:50
       Step Size:    0.231E-01 s, Total Time:     186.78 s
       Pressure Iterations: 2
       Maximum Velocity Error:  0.17E-01 on Mesh 1 at (14,21,22)
       Maximum Pressure Error:  0.31E+02 on Mesh 1 at (11,14,10)
       ---------------------------------------------------------------
       Max CFL number:  0.92E+00 at (12,14,10)
       Max divergence:  0.46E+01 at (15,14,3)
       Min divergence: -0.95E+00 at (13,14,7)
       Max VN number:   0.83E+00 at (29,16,18)
       Total Heat Release Rate:             62.787 kW
       Radiation Loss to Boundaries:       -20.604 kW
 
[...]
 
       Time Step   80600   October 26, 2022  22:42:55
       Step Size:    0.213E-01 s, Total Time:    1736.98 s
       Pressure Iterations: 2
       Maximum Velocity Error:  0.10E-01 on Mesh 1 at (11,13,22)
       Maximum Pressure Error:  0.41E+02 on Mesh 1 at (14,15,12)
       ---------------------------------------------------------------
       Max CFL number:  0.77E+00 at (13,12,13)
       Max divergence:  0.44E+01 at (15,14,3)
       Min divergence: -0.12E+01 at (13,14,8)
       Max VN number:   0.83E+00 at (29,15,18)
       Total Heat Release Rate:             61.828 kW
       Radiation Loss to Boundaries:       -18.052 kW
 
       Time Step   80700   October 26, 2022  22:43:02
       Step Size:    0.207E-01 s, Total Time:    1739.11 s
       Pressure Iterations: 1
       Maximum Velocity Error:  0.34E-01 on Mesh 1 at (16,11,22)
       Maximum Pressure Error:  0.25E+02 on Mesh 1 at (13,13,3)
       ---------------------------------------------------------------
       Max CFL number:  0.80E+00 at (37,15,20)
       Max divergence:  0.47E+01 at (15,15,3)
       Min divergence: -0.12E+01 at (14,16,6)
       Max VN number:   0.94E+00 at (29,13,18)
       Total Heat Release Rate:             63.531 kW
       Radiation Loss to Boundaries:       -18.845 kW
 
       Time Step   80800   October 26, 2022  22:43:09
       Step Size:    0.204E-01 s, Total Time:    1741.21 s
       Pressure Iterations: 2
       Maximum Velocity Error:  0.12E-01 on Mesh 1 at (14,17,22)
       Maximum Pressure Error:  0.68E+02 on Mesh 1 at (13,15,9)
       ---------------------------------------------------------------
       Max CFL number:  0.85E+00 at (13,15,8)
       Max divergence:  0.62E+01 at (15,14,3)
       Min divergence: -0.13E+01 at (14,16,7)
       Max VN number:   0.90E+00 at (29,16,18)
       Total Heat Release Rate:             64.429 kW
       Radiation Loss to Boundaries:       -19.037 kW
 
       Time Step   80900   October 26, 2022  22:43:16
       Step Size:    0.204E-01 s, Total Time:    1743.25 s
       Pressure Iterations: 2
       Maximum Velocity Error:  0.10E-01 on Mesh 1 at (16,13,22)
       Maximum Pressure Error:  0.15E+02 on Mesh 1 at (14,13,8)
       ---------------------------------------------------------------
       Max CFL number:  0.67E+00 at (14,13,8)
       Max divergence:  0.44E+01 at (15,15,3)
       Min divergence: -0.14E+01 at (14,13,7)
       Max VN number:   0.94E+00 at (29,16,18)
       Total Heat Release Rate:             63.612 kW
       Radiation Loss to Boundaries:       -18.724 kW
 
       Time Step   81000   October 26, 2022  22:43:23
       Step Size:    0.179E-01 s, Total Time:    1745.37 s
       Pressure Iterations: 1
       Maximum Velocity Error:  0.26E-01 on Mesh 1 at (16,11,22)
       Maximum Pressure Error:  0.42E+02 on Mesh 1 at (15,13,3)
       ---------------------------------------------------------------
       Max CFL number:  0.64E+00 at (13,16,11)
       Max divergence:  0.44E+01 at (15,15,3)
       Min divergence: -0.85E+00 at (13,16,11)
       Max VN number:   0.92E+00 at (29,16,18)
       Total Heat Release Rate:             63.385 kW
       Radiation Loss to Boundaries:       -18.740 kW
 
       Time Step   81100   October 26, 2022  22:43:29
       Step Size:    0.236E-01 s, Total Time:    1747.53 s
       Pressure Iterations: 2
       Maximum Velocity Error:  0.10E-01 on Mesh 1 at (13,20,22)
       Maximum Pressure Error:  0.34E+02 on Mesh 1 at (13,14,14)
       ---------------------------------------------------------------
       Max CFL number:  0.91E+00 at (13,15,12)
       Max divergence:  0.45E+01 at (15,14,3)
       Min divergence: -0.78E+00 at (14,17,8)
       Max VN number:   0.80E+00 at (29,15,18)
       Total Heat Release Rate:             63.659 kW
       Radiation Loss to Boundaries:       -19.520 kW
 
       Time Step   81200   October 26, 2022  22:43:36
       Step Size:    0.205E-01 s, Total Time:    1749.67 s
       Pressure Iterations: 1
       Maximum Velocity Error:  0.44E-01 on Mesh 1 at (14,12,22)
       Maximum Pressure Error:  0.19E+02 on Mesh 1 at (12,15,14)
       ---------------------------------------------------------------
       Max CFL number:  0.88E+00 at (13,15,16)
       Max divergence:  0.45E+01 at (15,13,3)
       Min divergence: -0.76E+00 at (14,13,6)
       Max VN number:   0.73E+00 at (29,15,18)
       Total Heat Release Rate:             63.551 kW
       Radiation Loss to Boundaries:       -19.315 kW
 
       Time Step   81300   October 26, 2022  22:43:43
       Step Size:    0.216E-01 s, Total Time:    1751.80 s
       Pressure Iterations: 1
       Maximum Velocity Error:  0.41E-01 on Mesh 1 at (10,14,22)
       Maximum Pressure Error:  0.24E+02 on Mesh 1 at (14,13,5)
       ---------------------------------------------------------------
       Max CFL number:  0.71E+00 at (36,15,20)
       Max divergence:  0.43E+01 at (15,14,3)
       Min divergence: -0.90E+00 at (13,16,9)
       Max VN number:   0.79E+00 at (29,15,18)
       Total Heat Release Rate:             61.399 kW
       Radiation Loss to Boundaries:       -17.764 kW
 
       Time Step   81400   October 26, 2022  22:43:50
       Step Size:    0.208E-01 s, Total Time:    1754.02 s
       Pressure Iterations: 1
       Maximum Velocity Error:  0.37E-01 on Mesh 1 at (13,16,22)
       Maximum Pressure Error:  0.31E+02 on Mesh 1 at (15,13,6)
       ---------------------------------------------------------------
       Max CFL number:  0.81E+00 at (12,16,15)
       Max divergence:  0.56E+01 at (16,13,3)
       Min divergence: -0.16E+01 at (14,15,7)
       Max VN number:   0.81E+00 at (29,15,18)
       Total Heat Release Rate:             64.360 kW
       Radiation Loss to Boundaries:       -18.932 kW
 
       Time Step   81500   October 26, 2022  22:43:57
       Step Size:    0.244E-01 s, Total Time:    1756.26 s
       Pressure Iterations: 2
       Maximum Velocity Error:  0.28E-01 on Mesh 1 at (12,12,22)
       Maximum Pressure Error:  0.13E+02 on Mesh 1 at (13,16,4)
       ---------------------------------------------------------------
       Max CFL number:  0.84E+00 at (13,12,22)
       Max divergence:  0.44E+01 at (15,13,3)
       Min divergence: -0.11E+01 at (14,13,7)
       Max VN number:   0.92E+00 at (29,16,18)
       Total Heat Release Rate:             62.731 kW
       Radiation Loss to Boundaries:       -18.267 kW
 
       Time Step   81600   October 26, 2022  22:44:04
       Step Size:    0.210E-01 s, Total Time:    1758.45 s
       Pressure Iterations: 1
       Maximum Velocity Error:  0.45E-01 on Mesh 1 at (10,14,22)
       Maximum Pressure Error:  0.13E+02 on Mesh 1 at (13,15,8)
       ---------------------------------------------------------------
       Max CFL number:  0.79E+00 at (37,14,21)
       Max divergence:  0.48E+01 at (15,14,3)
       Min divergence: -0.90E+00 at (14,15,7)
       Max VN number:   0.86E+00 at (29,16,18)
       Total Heat Release Rate:             63.898 kW
       Radiation Loss to Boundaries:       -19.722 kW
 
       Time Step   81700   October 26, 2022  22:44:11
       Step Size:    0.185E-01 s, Total Time:    1760.47 s
       Pressure Iterations: 1
       Maximum Velocity Error:  0.41E-01 on Mesh 1 at (26,15,22)
       Maximum Pressure Error:  0.74E+02 on Mesh 1 at (13,16,9)
       ---------------------------------------------------------------
       Max CFL number:  0.77E+00 at (13,16,9)
       Max divergence:  0.47E+01 at (15,13,3)
       Min divergence: -0.16E+01 at (13,16,8)
       Max VN number:   0.82E+00 at (29,16,18)
       Total Heat Release Rate:             63.789 kW
       Radiation Loss to Boundaries:       -18.097 kW
 
       Time Step   81800   October 26, 2022  22:44:18
       Step Size:    0.200E-01 s, Total Time:    1762.59 s
       Pressure Iterations: 2
       Maximum Velocity Error:  0.91E-02 on Mesh 1 at (6,12,22)
       Maximum Pressure Error:  0.13E+02 on Mesh 1 at (14,12,7)
       ---------------------------------------------------------------
       Max CFL number:  0.70E+00 at (37,16,22)
       Max divergence:  0.45E+01 at (15,14,3)
       Min divergence: -0.60E+00 at (14,16,5)
       Max VN number:   0.98E+00 at (29,13,18)
       Total Heat Release Rate:             62.543 kW
       Radiation Loss to Boundaries:       -18.960 kW
 
       Time Step   81900   October 26, 2022  22:44:24
       Step Size:    0.239E-01 s, Total Time:    1764.71 s
       Pressure Iterations: 2
       Maximum Velocity Error:  0.13E-01 on Mesh 1 at (7,18,22)
       Maximum Pressure Error:  0.21E+02 on Mesh 1 at (14,12,11)
       ---------------------------------------------------------------
       Max CFL number:  0.85E+00 at (37,14,21)
       Max divergence:  0.45E+01 at (15,14,3)
       Min divergence: -0.13E+01 at (13,14,6)
       Max VN number:   0.87E+00 at (29,15,18)
       Total Heat Release Rate:             63.182 kW
       Radiation Loss to Boundaries:       -18.273 kW
 
       Time Step   82000   October 26, 2022  22:44:31
       Step Size:    0.190E-01 s, Total Time:    1766.83 s
       Pressure Iterations: 1
       Maximum Velocity Error:  0.34E-01 on Mesh 1 at (9,9,22)
       Maximum Pressure Error:  0.19E+02 on Mesh 1 at (13,16,9)
       ---------------------------------------------------------------
       Max CFL number:  0.69E+00 at (37,14,19)
       Max divergence:  0.46E+01 at (15,14,3)
       Min divergence: -0.97E+00 at (13,16,7)
       Max VN number:   0.80E+00 at (29,16,18)
       Total Heat Release Rate:             61.741 kW
       Radiation Loss to Boundaries:       -17.843 kW
 
       Time Step   82100   October 26, 2022  22:44:38
       Step Size:    0.209E-01 s, Total Time:    1768.92 s
       Pressure Iterations: 2
       Maximum Velocity Error:  0.11E-01 on Mesh 1 at (8,10,22)
       Maximum Pressure Error:  0.16E+02 on Mesh 1 at (15,16,6)
       ---------------------------------------------------------------
       Max CFL number:  0.77E+00 at (12,18,18)
       Max divergence:  0.45E+01 at (15,15,3)
       Min divergence: -0.62E+00 at (14,16,7)
       Max VN number:   0.82E+00 at (29,13,18)
       Total Heat Release Rate:             62.765 kW
       Radiation Loss to Boundaries:       -18.723 kW
 
       Time Step   82200   October 26, 2022  22:44:45
       Step Size:    0.226E-01 s, Total Time:    1771.14 s
       Pressure Iterations: 2
       Maximum Velocity Error:  0.18E-01 on Mesh 1 at (16,17,22)
       Maximum Pressure Error:  0.76E+02 on Mesh 1 at (16,15,3)
       ---------------------------------------------------------------
       Max CFL number:  0.80E+00 at (37,14,21)
       Max divergence:  0.46E+01 at (15,14,3)
       Min divergence: -0.69E+00 at (13,13,9)
       Max VN number:   0.82E+00 at (29,14,18)
       Total Heat Release Rate:             64.152 kW
       Radiation Loss to Boundaries:       -19.570 kW
 
       Time Step   82300   October 26, 2022  22:44:52
       Step Size:    0.201E-01 s, Total Time:    1773.23 s
       Pressure Iterations: 1
       Maximum Velocity Error:  0.48E-01 on Mesh 1 at (12,14,22)
       Maximum Pressure Error:  0.36E+02 on Mesh 1 at (11,13,12)
       ---------------------------------------------------------------
       Max CFL number:  0.76E+00 at (11,13,11)
       Max divergence:  0.42E+01 at (15,14,3)
       Min divergence: -0.98E+00 at (14,16,6)
       Max VN number:   0.83E+00 at (29,15,18)
       Total Heat Release Rate:             60.623 kW
       Radiation Loss to Boundaries:       -17.413 kW
 
       Time Step   82400   October 26, 2022  22:44:59
       Step Size:    0.212E-01 s, Total Time:    1775.38 s
       Pressure Iterations: 2
       Maximum Velocity Error:  0.13E-01 on Mesh 1 at (11,18,22)
       Maximum Pressure Error:  0.33E+02 on Mesh 1 at (14,17,9)
       ---------------------------------------------------------------
       Max CFL number:  0.81E+00 at (14,17,8)
       Max divergence:  0.47E+01 at (15,14,3)
       Min divergence: -0.11E+01 at (14,17,9)
       Max VN number:   0.87E+00 at (29,16,18)
       Total Heat Release Rate:             64.253 kW
       Radiation Loss to Boundaries:       -18.847 kW
 
       Time Step   82500   October 26, 2022  22:45:06
       Step Size:    0.206E-01 s, Total Time:    1777.57 s
       Pressure Iterations: 2
       Maximum Velocity Error:  0.95E-02 on Mesh 1 at (25,12,22)
       Maximum Pressure Error:  0.39E+02 on Mesh 1 at (13,15,15)
       ---------------------------------------------------------------
       Max CFL number:  0.81E+00 at (13,15,13)
       Max divergence:  0.59E+01 at (15,15,3)
       Min divergence: -0.81E+00 at (12,15,10)
       Max VN number:   0.89E+00 at (29,16,18)
       Total Heat Release Rate:             64.080 kW
       Radiation Loss to Boundaries:       -18.706 kW
 
       Time Step   82600   October 26, 2022  22:45:13
       Step Size:    0.202E-01 s, Total Time:    1779.75 s
       Pressure Iterations: 2
       Maximum Velocity Error:  0.22E-01 on Mesh 1 at (16,16,2)
       Maximum Pressure Error:  0.15E+03 on Mesh 1 at (16,16,3)
       ---------------------------------------------------------------
       Max CFL number:  0.70E+00 at (36,15,20)
       Max divergence:  0.45E+01 at (15,14,3)
       Min divergence: -0.67E+00 at (14,16,6)
       Max VN number:   0.90E+00 at (29,16,18)
       Total Heat Release Rate:             62.681 kW
       Radiation Loss to Boundaries:       -18.246 kW
 
       Time Step   82700   October 26, 2022  22:45:19
       Step Size:    0.244E-01 s, Total Time:    1781.81 s
       Pressure Iterations: 2
       Maximum Velocity Error:  0.20E-01 on Mesh 1 at (19,14,22)
       Maximum Pressure Error:  0.19E+02 on Mesh 1 at (14,13,3)
       ---------------------------------------------------------------
       Max CFL number:  0.84E+00 at (13,13,22)
       Max divergence:  0.46E+01 at (16,13,3)
       Min divergence: -0.13E+01 at (14,13,7)
       Max VN number:   0.77E+00 at (29,14,18)
       Total Heat Release Rate:             62.087 kW
       Radiation Loss to Boundaries:       -17.970 kW
 
       Time Step   82800   October 26, 2022  22:45:26
       Step Size:    0.208E-01 s, Total Time:    1783.94 s
       Pressure Iterations: 1
       Maximum Velocity Error:  0.43E-01 on Mesh 1 at (12,17,22)
       Maximum Pressure Error:  0.24E+02 on Mesh 1 at (14,13,3)
       ---------------------------------------------------------------
       Max CFL number:  0.77E+00 at (36,14,19)
       Max divergence:  0.48E+01 at (15,14,3)
       Min divergence: -0.86E+00 at (14,13,8)
       Max VN number:   0.85E+00 at (29,16,18)
       Total Heat Release Rate:             60.741 kW
       Radiation Loss to Boundaries:       -17.746 kW
 
       Time Step   82900   October 26, 2022  22:45:33
       Step Size:    0.205E-01 s, Total Time:    1786.10 s
       Pressure Iterations: 2
       Maximum Velocity Error:  0.82E-02 on Mesh 1 at (13,14,22)
       Maximum Pressure Error:  0.59E+02 on Mesh 1 at (13,16,7)
       ---------------------------------------------------------------
       Max CFL number:  0.71E+00 at (14,17,10)
       Max divergence:  0.43E+01 at (15,15,3)
       Min divergence: -0.12E+01 at (13,16,7)
       Max VN number:   0.85E+00 at (29,14,18)
       Total Heat Release Rate:             62.927 kW
       Radiation Loss to Boundaries:       -18.531 kW
 
       Time Step   83000   October 26, 2022  22:45:40
       Step Size:    0.201E-01 s, Total Time:    1788.25 s
       Pressure Iterations: 2
       Maximum Velocity Error:  0.75E-02 on Mesh 1 at (11,9,22)
       Maximum Pressure Error:  0.74E+01 on Mesh 1 at (13,15,3)
       ---------------------------------------------------------------
       Max CFL number:  0.72E+00 at (37,16,21)
       Max divergence:  0.45E+01 at (15,14,3)
       Min divergence: -0.12E+01 at (14,13,8)
       Max VN number:   0.98E+00 at (29,16,18)
       Total Heat Release Rate:             63.824 kW
       Radiation Loss to Boundaries:       -19.112 kW
 
       Time Step   83100   October 26, 2022  22:45:47
       Step Size:    0.211E-01 s, Total Time:    1790.39 s
       Pressure Iterations: 1
       Maximum Velocity Error:  0.37E-01 on Mesh 1 at (12,17,22)
       Maximum Pressure Error:  0.19E+02 on Mesh 1 at (13,16,5)
       ---------------------------------------------------------------
       Max CFL number:  0.81E+00 at (13,14,14)
       Max divergence:  0.46E+01 at (15,14,3)
       Min divergence: -0.11E+01 at (13,13,8)
       Max VN number:   0.79E+00 at (29,16,18)
       Total Heat Release Rate:             62.955 kW
       Radiation Loss to Boundaries:       -19.053 kW
 
       Time Step   83200   October 26, 2022  22:45:54
       Step Size:    0.229E-01 s, Total Time:    1792.54 s
       Pressure Iterations: 2
       Maximum Velocity Error:  0.13E-01 on Mesh 1 at (11,17,22)
       Maximum Pressure Error:  0.22E+02 on Mesh 1 at (14,13,12)
       ---------------------------------------------------------------
       Max CFL number:  0.85E+00 at (14,13,10)
       Max divergence:  0.51E+01 at (15,15,3)
       Min divergence: -0.96E+00 at (14,13,8)
       Max VN number:   0.93E+00 at (29,16,18)
       Total Heat Release Rate:             63.008 kW
       Radiation Loss to Boundaries:       -18.428 kW
 
       Time Step   83300   October 26, 2022  22:46:01
       Step Size:    0.200E-01 s, Total Time:    1794.54 s
       Pressure Iterations: 2
       Maximum Velocity Error:  0.12E-01 on Mesh 1 at (14,11,22)
       Maximum Pressure Error:  0.36E+02 on Mesh 1 at (13,14,10)
       ---------------------------------------------------------------
       Max CFL number:  0.79E+00 at (13,15,13)
       Max divergence:  0.52E+01 at (16,14,3)
       Min divergence: -0.12E+01 at (13,15,8)
       Max VN number:   0.94E+00 at (29,16,18)
       Total Heat Release Rate:             62.384 kW
       Radiation Loss to Boundaries:       -17.970 kW
 
       Time Step   83400   October 26, 2022  22:46:08
       Step Size:    0.196E-01 s, Total Time:    1796.58 s
       Pressure Iterations: 1
       Maximum Velocity Error:  0.46E-01 on Mesh 1 at (14,11,22)
       Maximum Pressure Error:  0.19E+02 on Mesh 1 at (13,13,8)
       ---------------------------------------------------------------
       Max CFL number:  0.71E+00 at (38,14,21)
       Max divergence:  0.47E+01 at (15,14,3)
       Min divergence: -0.93E+00 at (12,14,9)
       Max VN number:   0.84E+00 at (29,14,18)
       Total Heat Release Rate:             63.931 kW
       Radiation Loss to Boundaries:       -18.668 kW
 
       Time Step   83500   October 26, 2022  22:46:15
       Step Size:    0.210E-01 s, Total Time:    1798.74 s
       Pressure Iterations: 2
       Maximum Velocity Error:  0.21E-01 on Mesh 1 at (15,10,22)
       Maximum Pressure Error:  0.53E+02 on Mesh 1 at (13,16,6)
       ---------------------------------------------------------------
       Max CFL number:  0.75E+00 at (35,16,19)
       Max divergence:  0.49E+01 at (15,13,3)
       Min divergence: -0.11E+01 at (13,16,6)
       Max VN number:   0.93E+00 at (29,13,18)
       Total Heat Release Rate:             60.820 kW
       Radiation Loss to Boundaries:       -17.361 kW
 
       Time Step   83555   October 26, 2022  22:46:18
       Step Size:    0.261E-02 s, Total Time:    1800.00 s
       Pressure Iterations: 1
       Maximum Velocity Error:  0.22E-01 on Mesh 1 at (14,16,2)
       Maximum Pressure Error:  0.14E+04 on Mesh 1 at (14,16,3)
       ---------------------------------------------------------------
       Max CFL number:  0.89E-01 at (34,15,18)
       Max divergence:  0.48E+01 at (15,15,3)
       Min divergence: -0.61E+00 at (13,12,8)
       Max VN number:   0.10E+00 at (29,14,18)
       Total Heat Release Rate:             68.449 kW
       Radiation Loss to Boundaries:       -18.437 kW
 


 Time Stepping Wall Clock Time (s):     5801.293
 Total Elapsed Wall Clock Time (s):     5803.983

STOP: FDS completed successfully (CHID: StecklerExample)
