
 Fire Dynamics Simulator

 Current Date     : November 22, 2022  12:26:19
 Revision         : FDS6.7.9-0-gec52dee-HEAD
 Revision Date    : Sun Jun 26 14:36:40 2022 -0400
 Compiler         : ifort version 2021.2.0
 Compilation Date : Jun 30, 2022 15:04:40

 MPI Enabled;    Number of MPI Processes:       8
 OpenMP Disabled

 MPI version: 3.1
 MPI library version: Intel(R) MPI Library 2021.2 for Linux* OS


 Job TITLE        : Example in the Fire Simulation Lecture
 Job ID string    : Appartment


 Grid Dimensions, Mesh     1

   Cells in the X Direction            27
   Cells in the Y Direction            32
   Cells in the Z Direction            22
   Number of Grid Cells             19008


 Physical Dimensions, Mesh     1

   Length (m)                       2.700
   Width  (m)                       3.200
   Height (m)                       2.200
   Initial Time Step (s)            0.107

 Grid Dimensions, Mesh     2

   Cells in the X Direction            27
   Cells in the Y Direction            32
   Cells in the Z Direction            22
   Number of Grid Cells             19008


 Physical Dimensions, Mesh     2

   Length (m)                       2.700
   Width  (m)                       3.200
   Height (m)                       2.200
   Initial Time Step (s)            0.107

 Grid Dimensions, Mesh     3

   Cells in the X Direction            27
   Cells in the Y Direction            32
   Cells in the Z Direction            22
   Number of Grid Cells             19008


 Physical Dimensions, Mesh     3

   Length (m)                       2.700
   Width  (m)                       3.200
   Height (m)                       2.200
   Initial Time Step (s)            0.107

 Grid Dimensions, Mesh     4

   Cells in the X Direction            27
   Cells in the Y Direction            32
   Cells in the Z Direction            22
   Number of Grid Cells             19008


 Physical Dimensions, Mesh     4

   Length (m)                       2.700
   Width  (m)                       3.200
   Height (m)                       2.200
   Initial Time Step (s)            0.107

 Grid Dimensions, Mesh     5

   Cells in the X Direction            27
   Cells in the Y Direction            32
   Cells in the Z Direction            22
   Number of Grid Cells             19008


 Physical Dimensions, Mesh     5

   Length (m)                       2.700
   Width  (m)                       3.200
   Height (m)                       2.200
   Initial Time Step (s)            0.107

 Grid Dimensions, Mesh     6

   Cells in the X Direction            27
   Cells in the Y Direction            32
   Cells in the Z Direction            22
   Number of Grid Cells             19008


 Physical Dimensions, Mesh     6

   Length (m)                       2.700
   Width  (m)                       3.200
   Height (m)                       2.200
   Initial Time Step (s)            0.107

 Grid Dimensions, Mesh     7

   Cells in the X Direction            27
   Cells in the Y Direction            32
   Cells in the Z Direction            22
   Number of Grid Cells             19008


 Physical Dimensions, Mesh     7

   Length (m)                       2.700
   Width  (m)                       3.200
   Height (m)                       2.200
   Initial Time Step (s)            0.107

 Grid Dimensions, Mesh     8

   Cells in the X Direction            27
   Cells in the Y Direction            32
   Cells in the Z Direction            22
   Number of Grid Cells             19008


 Physical Dimensions, Mesh     8

   Length (m)                       2.700
   Width  (m)                       3.200
   Height (m)                       2.200
   Initial Time Step (s)            0.107

 Total Number of Grid Cells        152064


 Maximum Cell Aspect Ratio          1.000
 CFL Velocity Norm                      2


 Miscellaneous Parameters

   Simulation Start Time (s)          0.0
   Simulation End Time (s)          300.0
   Background Pressure (Pa)     101325.00
   Ambient Temperature (C)          20.00

   3D Cartesian
   VLES Calculation
   Eddy Viscosity: Deardorff Model (C_DEARDORFF = 0.10)
   Surface BURNER Eddy Viscosity: WALE Model (C_WALE = 0.60)
   Surface Wall Lining Eddy Viscosity: WALE Model (C_WALE = 0.60)
   Turbulent Prandtl Number:         0.50
   Turbulent Schmidt Number:         0.50


 Background Stratification

      Z (m)     P_0 (Pa)    TMP_0 (C)
   ------------------------------------
        2.15    101299.80     20.00
        2.05    101300.97     20.00
        1.95    101302.14     20.00
        1.85    101303.31     20.00
        1.75    101304.49     20.00
        1.65    101305.66     20.00
        1.55    101306.83     20.00
        1.45    101308.00     20.00
        1.35    101309.17     20.00
        1.25    101310.34     20.00
        1.15    101311.51     20.00
        1.05    101312.69     20.00
        0.95    101313.86     20.00
        0.85    101315.03     20.00
        0.75    101316.20     20.00
        0.65    101317.38     20.00
        0.55    101318.55     20.00
        0.45    101319.72     20.00
        0.35    101320.89     20.00
        0.25    101322.07     20.00
        0.15    101323.24     20.00
        0.05    101324.41     20.00


 Mass Fraction Transformation Matrix to Convert Species Mixtures (Columns) to Primitive Species (Rows)

                         AIR       METHANE   PRODUCTS
   METHANE               0.000000  1.000000  0.000000
   NITROGEN              0.762470  0.000000  0.719062
   OXYGEN                0.230997  0.000000  0.000000
   CARBON DIOXIDE        0.000591  0.000000  0.144337
   WATER VAPOR           0.005941  0.000000  0.133185
   CARBON MONOXIDE       0.000000  0.000000  0.000000
   SOOT                  0.000000  0.000000  0.003416
   HYDROGEN              0.000000  0.000000  0.000000
   HYDROGEN CYANIDE      0.000000  0.000000  0.000000


 Primitive Species Information

   METHANE
   Gas Species
   Molecular Weight (g/mol)            16.04246
   Ambient Density (kg/m^3)            0.667
   Enthalpy of Formation (J/kg)       -4.67E+06

   NITROGEN
   Gas Species
   Molecular Weight (g/mol)            28.01340
   Ambient Density (kg/m^3)            1.165
   Enthalpy of Formation (J/kg)        0.00E+00

   OXYGEN
   Gas Species
   Molecular Weight (g/mol)            31.99880
   Ambient Density (kg/m^3)            1.330
   Enthalpy of Formation (J/kg)        0.00E+00

   CARBON DIOXIDE
   Gas Species
   Molecular Weight (g/mol)            44.00950
   Ambient Density (kg/m^3)            1.830
   Enthalpy of Formation (J/kg)       -8.94E+06

   WATER VAPOR
   Gas Species
   Molecular Weight (g/mol)            18.01528
   Ambient Density (kg/m^3)            0.749
   Enthalpy of Formation (J/kg)       -1.34E+07

   CARBON MONOXIDE
   Gas Species
   Molecular Weight (g/mol)            28.01010
   Ambient Density (kg/m^3)            1.164
   Enthalpy of Formation (J/kg)       -3.95E+06

   SOOT
   Gas Species
   Molecular Weight (g/mol)            10.91042
   Ambient Density (kg/m^3)            0.454
   Enthalpy of Formation (J/kg)        0.00E+00

   HYDROGEN
   Gas Species
   Molecular Weight (g/mol)             2.01588
   Ambient Density (kg/m^3)            0.084
   Enthalpy of Formation (J/kg)        0.00E+00

   HYDROGEN CYANIDE
   Gas Species
   Molecular Weight (g/mol)            27.02534
   Ambient Density (kg/m^3)            1.123
   Enthalpy of Formation (J/kg)        4.92E+06


 Tracked (Lumped) Species Information

   AIR
   Molecular Weight (g/mol)            28.75198
   Ambient Density (kg/m^3)            1.195
   Initial Mass Fraction               1.000
   Enthalpy of Formation (J/kg)     -8.50E+04

   Sub Species                    Mass Fraction     Mole Fraction
   NITROGEN                       7.624699E-01      7.825727E-01
   OXYGEN                         2.309974E-01      2.075588E-01
   CARBON DIOXIDE                 5.914650E-04      3.864118E-04
   WATER VAPOR                    5.941209E-03      9.482037E-03
 
     Viscosity (kg/m/s) Ambient,  293 K:  1.80E-05
                                  500 K:  2.61E-05
                                 1000 K:  4.13E-05
                                 1500 K:  5.37E-05
   Therm. Cond. (W/m/K) Ambient,  293 K:  2.56E-02
                                  500 K:  3.81E-02
                                 1000 K:  6.69E-02
                                 1500 K:  9.25E-02
        Enthalpy (J/kg) Ambient,  293 K: -9.01E+04
                                  500 K:  1.22E+05
                                 1000 K:  6.72E+05
                                 1500 K:  1.27E+06
    Spec. Heat (J/kg/K) Ambient,  293 K:  1.02E+03
                                  500 K:  1.04E+03
                                 1000 K:  1.16E+03
                                 1500 K:  1.23E+03
   Diff. Coeff. (m^2/s) Ambient,  293 K:  1.99E-05
                                  500 K:  4.96E-05
                                 1000 K:  1.58E-04
                                 1500 K:  3.09E-04

   METHANE
   Molecular Weight (g/mol)            16.04246
   Ambient Density (kg/m^3)            0.667
   Initial Mass Fraction               0.000
   Enthalpy of Formation (J/kg)     -4.67E+06

   Sub Species                    Mass Fraction     Mole Fraction
   METHANE                        1.000000E+00      1.000000E+00
 
     Viscosity (kg/m/s) Ambient,  293 K:  1.10E-05
                                  500 K:  1.68E-05
                                 1000 K:  2.73E-05
                                 1500 K:  3.56E-05
   Therm. Cond. (W/m/K) Ambient,  293 K:  3.47E-02
                                  500 K:  6.96E-02
                                 1000 K:  1.79E-01
                                 1500 K:  2.88E-01
        Enthalpy (J/kg) Ambient,  293 K: -4.66E+06
                                  500 K: -4.14E+06
                                 1000 K: -2.24E+06
                                 1500 K:  3.48E+05
    Spec. Heat (J/kg/K) Ambient,  293 K:  2.21E+03
                                  500 K:  2.90E+03
                                 1000 K:  4.59E+03
                                 1500 K:  5.66E+03
   Diff. Coeff. (m^2/s) Ambient,  293 K:  2.15E-05
                                  500 K:  5.44E-05
                                 1000 K:  1.75E-04
                                 1500 K:  3.43E-04

   PRODUCTS
   Molecular Weight (g/mol)            27.28203
   Ambient Density (kg/m^3)            1.134
   Initial Mass Fraction               0.000
   Enthalpy of Formation (J/kg)     -3.08E+06

   Sub Species                    Mass Fraction     Mole Fraction
   NITROGEN                       7.190616E-01      7.002884E-01
   CARBON DIOXIDE                 1.443370E-01      8.947629E-02
   WATER VAPOR                    1.331855E-01      2.016938E-01
   CARBON MONOXIDE                0.000000E+00      0.000000E+00
   SOOT                           3.415869E-03      8.541541E-03
   HYDROGEN CYANIDE               0.000000E+00      0.000000E+00
 
     Viscosity (kg/m/s) Ambient,  293 K:  1.59E-05
                                  500 K:  2.37E-05
                                 1000 K:  3.88E-05
                                 1500 K:  5.14E-05
   Therm. Cond. (W/m/K) Ambient,  293 K:  2.34E-02
                                  500 K:  3.63E-02
                                 1000 K:  6.78E-02
                                 1500 K:  9.80E-02
        Enthalpy (J/kg) Ambient,  293 K: -3.08E+06
                                  500 K: -2.85E+06
                                 1000 K: -2.22E+06
                                 1500 K: -1.53E+06
    Spec. Heat (J/kg/K) Ambient,  293 K:  1.12E+03
                                  500 K:  1.17E+03
                                 1000 K:  1.33E+03
                                 1500 K:  1.44E+03
   Diff. Coeff. (m^2/s) Ambient,  293 K:  1.97E-05
                                  500 K:  5.02E-05
                                 1000 K:  1.63E-04
                                 1500 K:  3.20E-04


 Gas Phase Reaction Information

      Fuel                                           Heat of Combustion (kJ/kg)
      METHANE                                                        47996.2170

      Primitive Species Stoich. Coeff.
      Species ID                                                          Molar
      METHANE                                                         -1.000000
      OXYGEN                                                          -1.918394
      CARBON DIOXIDE                                                   0.920600
      WATER VAPOR                                                      1.995589
      SOOT                                                             0.088223

      Tracked (Lumped) Species Stoich. Coeff.
      Species ID                                             Molar         Mass
      AIR                                                -9.242652   -16.565076
      METHANE                                            -1.000000    -1.000000
      PRODUCTS                                           10.328669    17.565076

      Reaction Kinetics

      Fast chemistry

      ODE Solver:  EXPLICIT EULER
      Extinction Model:  EXTINCTION 2
      Auto-Ignition Temperature (K):       0.0
      Critical Flame Temperature (K):   1780.2

      Prescribed Radiative Fraction:     0.020


 Material Information

   1 MARINITE
     Emissivity                      0.900
     Density (kg/m3)                 737.0
     Specific Heat (kJ/kg/K)       1.20E+00
     Conductivity (W/m/K)          1.20E-01


 Surface Conditions

   0 INERT

   1 BURNER
     Wall or Vent Temperature (C)   250.0
     HRR Per Unit Area (kW/m2)       1000.0
     METHANE Mass Flux (kg/s/m2)   2.08E-02

   2 Wall Lining (DEFAULT)
     Material List
          1  MARINITE
     Layer  1
        Thickness   (m):  0.02540
        Density (kg/m3):   737.00
        MARINITE, Mass fraction:    1.00
     Total surface density    18.720 kg/m2
     Reaction products considered from the first  0.50 layers.
     Solid Phase Node, Layer, Coordinates(m):
                    0      1       0.0000000
                    1      1       0.0002702
                    2      1       0.0008106
                    3      1       0.0018915
                    4      1       0.0040532
                    5      1       0.0083766
                    6      1       0.0170234
                    7      1       0.0213468
                    8      1       0.0235085
                    9      1       0.0245894
                   10      1       0.0251298
                   11      1       0.0254000
     Exposed Backing

   3 OPEN
     Passive Vent to Atmosphere

   4 MIRROR
     Symmetry Plane

   5 INTERPOLATED

   6 PERIODIC

   7 HVAC

   8 MASSLESS TRACER

   9 DROPLET

  10 MASSLESS TARGET

  11 PERIODIC FLOW ONLY


 Lagrangian Particle Classes


 Cut-off Density and Temperature

    Minimum Temperature:   -10.0 C
    Maximum Temperature:  2726.8 C
    Minimum Density:  1.195E-01 kg/m3
    Maximum Density:  2.663E+00 kg/m3


 Slice File Information, Mesh     1

   1 Nodes:  16  16   0  32   0  22, Quantity: TEMPERATURE
   2 Nodes:   0  27   0  32  11  11, Quantity: TEMPERATURE
   3 Nodes:   0  27   0  32  16  16, Quantity: TEMPERATURE
   4 Nodes:   0  27   0  32  21  21, Quantity: TEMPERATURE
   5 Nodes:  16  16   0  32   0  22, Quantity: SOOT DENSITY
   6 Nodes:   0  27   0  32  11  11, Quantity: SOOT DENSITY
   7 Nodes:   0  27   0  32  16  16, Quantity: SOOT DENSITY
   8 Nodes:   0  27   0  32  21  21, Quantity: SOOT DENSITY


 Boundary File Information

   1 Quantity: WALL TEMPERATURE


 Radiation Model Information

   Number of control angles  104
   Time step increment         3
   Angle increment             5
   Theta band N_phi   Solid angle
     1:        4     0.120
     2:       12     0.114
     3:       16     0.127
     4:       20     0.120
     5:       20     0.120
     6:       16     0.127
     7:       12     0.114
     8:        4     0.120
   Using gray gas absorption.
   Mean beam length  1.000E-01 m
 
 

 Run Time Diagnostics

       Time Step       1   November 22, 2022  12:26:20
       Step Size:    0.107E+00 s, Total Time:       0.11 s
       Pressure Iterations: 1
       Maximum Velocity Error:  0.43E-02 on Mesh 5 at (0,28,2)
       Maximum Pressure Error:  0.44E-05 on Mesh 3 at (6,24,20)
       ---------------------------------------------------------------
       Mesh    1
       Max CFL number:  0.26E-01 at (24,7,5)
       Max divergence:  0.16E-05 at (10,18,2)
       Min divergence: -0.20E-05 at (10,6,21)
       Max VN number:   0.35E-01 at (10,26,16)
       Radiation Loss to Boundaries:        -0.002 kW
       Mesh    2
       Max CFL number:  0.27E-01 at (18,20,18)
       Max divergence:  0.15E-05 at (9,18,2)
       Min divergence: -0.21E-05 at (7,2,21)
       Max VN number:   0.30E-01 at (23,24,20)
       Radiation Loss to Boundaries:        -0.001 kW
       Mesh    3
       Max CFL number:  0.26E-01 at (19,7,17)
       Max divergence:  0.18E-05 at (21,10,2)
       Min divergence: -0.23E-05 at (2,10,21)
       Max VN number:   0.36E-01 at (6,19,17)
       Radiation Loss to Boundaries:        -0.001 kW
       Mesh    4
       Max CFL number:  0.27E-01 at (16,16,17)
       Max divergence:  0.21E-05 at (23,30,2)
       Min divergence: -0.22E-05 at (1,12,21)
       Max VN number:   0.31E-01 at (10,24,11)
       Radiation Loss to Boundaries:        -0.001 kW
       Mesh    5
       Max CFL number:  0.27E-01 at (26,14,12)
       Max divergence:  0.18E-05 at (11,5,2)
       Min divergence: -0.17E-05 at (25,21,21)
       Max VN number:   0.33E-01 at (26,28,3)
       Radiation Loss to Boundaries:        -0.001 kW
       Mesh    6
       Max CFL number:  0.26E-01 at (2,5,10)
       Max divergence:  0.19E-05 at (20,3,2)
       Min divergence: -0.19E-05 at (3,2,21)
       Max VN number:   0.31E-01 at (25,9,13)
       Radiation Loss to Boundaries:        -0.001 kW
       Mesh    7
       Max CFL number:  0.27E-01 at (19,10,13)
       Max divergence:  0.14E-05 at (18,19,2)
       Min divergence: -0.22E-05 at (12,28,21)
       Max VN number:   0.27E-01 at (3,8,1)
       Radiation Loss to Boundaries:        -0.001 kW
       Mesh    8
       Max CFL number:  0.27E-01 at (12,13,15)
       Max divergence:  0.16E-01 at (15,15,3)
       Min divergence: -0.21E-05 at (18,29,21)
       Max VN number:   0.34E-01 at (2,6,16)
       Radiation Loss to Boundaries:         0.002 kW
 
       Time Step       2   November 22, 2022  12:26:20
       Step Size:    0.107E+00 s, Total Time:       0.21 s
       Pressure Iterations: 2
       Maximum Velocity Error:  0.26E-01 on Mesh 8 at (15,15,2)
       Maximum Pressure Error:  0.32E+00 on Mesh 8 at (14,14,3)
       ---------------------------------------------------------------
       Mesh    1
       Max CFL number:  0.26E-01 at (24,7,5)
       Max divergence:  0.16E-05 at (10,18,2)
       Min divergence: -0.20E-05 at (10,6,21)
       Max VN number:   0.26E-01 at (4,8,22)
       Radiation Loss to Boundaries:        -0.002 kW
       Mesh    2
       Max CFL number:  0.27E-01 at (18,20,18)
       Max divergence:  0.15E-05 at (9,18,2)
       Min divergence: -0.21E-05 at (7,2,21)
       Max VN number:   0.27E-01 at (19,31,1)
       Radiation Loss to Boundaries:        -0.001 kW
       Mesh    3
       Max CFL number:  0.26E-01 at (19,7,17)
       Max divergence:  0.18E-05 at (21,10,2)
       Min divergence: -0.23E-05 at (2,10,21)
       Max VN number:   0.37E-01 at (6,19,17)
       Radiation Loss to Boundaries:        -0.001 kW
       Mesh    4
       Max CFL number:  0.27E-01 at (16,16,17)
       Max divergence:  0.21E-05 at (23,30,2)
       Min divergence: -0.22E-05 at (1,12,21)
       Max VN number:   0.29E-01 at (9,24,16)
       Radiation Loss to Boundaries:        -0.001 kW
       Mesh    5
       Max CFL number:  0.27E-01 at (26,14,12)
       Max divergence:  0.18E-05 at (11,5,2)
       Min divergence: -0.17E-05 at (25,21,21)
       Max VN number:   0.32E-01 at (18,30,12)
       Radiation Loss to Boundaries:        -0.001 kW
       Mesh    6
       Max CFL number:  0.26E-01 at (2,5,10)
       Max divergence:  0.19E-05 at (20,3,2)
       Min divergence: -0.19E-05 at (3,2,21)
       Max VN number:   0.30E-01 at (8,29,20)
       Radiation Loss to Boundaries:        -0.001 kW
       Mesh    7
       Max CFL number:  0.26E-01 at (19,10,13)
       Max divergence:  0.14E-05 at (18,19,2)
       Min divergence: -0.22E-05 at (12,28,21)
       Max VN number:   0.27E-01 at (3,8,1)
       Radiation Loss to Boundaries:        -0.001 kW
       Mesh    8
       Max CFL number:  0.26E-01 at (12,13,15)
       Max divergence:  0.22E+01 at (15,15,3)
       Min divergence: -0.21E-05 at (18,29,21)
       Max VN number:   0.26E-01 at (7,19,1)
       Total Heat Release Rate:             11.640 kW
       Radiation Loss to Boundaries:         0.002 kW
 
       Time Step       3   November 22, 2022  12:26:20
       Step Size:    0.107E+00 s, Total Time:       0.32 s
       Pressure Iterations: 2
       Maximum Velocity Error:  0.20E-01 on Mesh 8 at (16,15,2)
       Maximum Pressure Error:  0.35E+02 on Mesh 8 at (14,16,3)
       ---------------------------------------------------------------
       Mesh    1
       Max CFL number:  0.26E-01 at (24,7,5)
       Max divergence:  0.16E-05 at (10,18,2)
       Min divergence: -0.19E-05 at (10,6,21)
       Max VN number:   0.26E-01 at (4,8,22)
       Radiation Loss to Boundaries:        -0.001 kW
       Mesh    2
       Max CFL number:  0.27E-01 at (18,20,18)
       Max divergence:  0.15E-05 at (9,18,2)
       Min divergence: -0.20E-05 at (7,2,21)
       Max VN number:   0.27E-01 at (19,31,1)
       Mesh    3
       Max CFL number:  0.26E-01 at (19,7,17)
       Max divergence:  0.18E-05 at (21,10,2)
       Min divergence: -0.21E-05 at (11,11,21)
       Max VN number:   0.37E-01 at (6,19,17)
       Mesh    4
       Max CFL number:  0.26E-01 at (16,16,17)
       Max divergence:  0.21E-05 at (23,30,2)
       Min divergence: -0.21E-05 at (1,12,21)
       Max VN number:   0.29E-01 at (9,24,16)
       Mesh    5
       Max CFL number:  0.27E-01 at (26,14,12)
       Max divergence:  0.18E-05 at (11,5,2)
       Min divergence: -0.17E-05 at (25,21,21)
       Max VN number:   0.32E-01 at (18,30,12)
       Mesh    6
       Max CFL number:  0.25E-01 at (2,5,10)
       Max divergence:  0.19E-05 at (20,3,2)
       Min divergence: -0.18E-05 at (5,6,21)
       Max VN number:   0.31E-01 at (8,29,20)
       Mesh    7
       Max CFL number:  0.26E-01 at (19,10,13)
       Max divergence:  0.14E-05 at (18,19,2)
       Min divergence: -0.22E-05 at (12,28,21)
       Max VN number:   0.27E-01 at (3,8,1)
       Radiation Loss to Boundaries:        -0.001 kW
       Mesh    8
       Max CFL number:  0.39E+00 at (14,16,3)
       Max divergence:  0.19E+01 at (17,13,3)
       Min divergence: -0.18E-05 at (18,29,21)
       Max VN number:   0.54E-01 at (15,15,3)
       Total Heat Release Rate:             10.575 kW
       Radiation Loss to Boundaries:        -0.446 kW
 
       Time Step       4   November 22, 2022  12:26:20
       Step Size:    0.107E+00 s, Total Time:       0.43 s
       Pressure Iterations: 3
       Maximum Velocity Error:  0.38E-01 on Mesh 8 at (16,15,2)
       Maximum Pressure Error:  0.25E+03 on Mesh 8 at (14,13,3)
       ---------------------------------------------------------------
       Mesh    1
       Max CFL number:  0.26E-01 at (24,7,5)
       Max divergence:  0.16E-05 at (10,18,2)
       Min divergence: -0.19E-05 at (10,6,21)
       Max VN number:   0.25E-01 at (4,8,22)
       Radiation Loss to Boundaries:        -0.001 kW
       Mesh    2
       Max CFL number:  0.27E-01 at (18,20,18)
       Max divergence:  0.15E-05 at (9,18,2)
       Min divergence: -0.20E-05 at (7,2,21)
       Max VN number:   0.27E-01 at (19,31,1)
       Mesh    3
       Max CFL number:  0.26E-01 at (19,7,17)
       Max divergence:  0.18E-05 at (21,10,2)
       Min divergence: -0.21E-05 at (11,11,21)
       Max VN number:   0.37E-01 at (6,19,17)
       Mesh    4
       Max CFL number:  0.26E-01 at (16,16,17)
       Max divergence:  0.21E-05 at (23,30,2)
       Min divergence: -0.21E-05 at (1,12,21)
       Max VN number:   0.29E-01 at (9,24,16)
       Mesh    5
       Max CFL number:  0.27E-01 at (26,14,12)
       Max divergence:  0.18E-05 at (11,5,2)
       Min divergence: -0.17E-05 at (25,21,21)
       Max VN number:   0.32E-01 at (18,30,12)
       Mesh    6
       Max CFL number:  0.25E-01 at (2,5,10)
       Max divergence:  0.19E-05 at (20,3,2)
       Min divergence: -0.18E-05 at (5,6,21)
       Max VN number:   0.31E-01 at (8,29,20)
       Mesh    7
       Max CFL number:  0.26E-01 at (19,10,13)
       Max divergence:  0.14E-05 at (18,19,2)
       Min divergence: -0.21E-05 at (12,28,21)
       Max VN number:   0.28E-01 at (3,8,1)
       Radiation Loss to Boundaries:        -0.001 kW
       Mesh    8
       Max CFL number:  0.38E+00 at (14,16,3)
       Max divergence:  0.11E+02 at (16,15,3)
       Min divergence: -0.17E-05 at (18,29,21)
       Max VN number:   0.71E-01 at (17,16,3)
       Total Heat Release Rate:             65.649 kW
       Radiation Loss to Boundaries:        -1.288 kW
 
       Time Step       5   November 22, 2022  12:26:20
       Step Size:    0.720E-01 s, Total Time:       0.50 s
       Pressure Iterations: 2
       Maximum Velocity Error:  0.29E-01 on Mesh 8 at (16,14,2)
       Maximum Pressure Error:  0.78E+03 on Mesh 8 at (14,15,3)
       ---------------------------------------------------------------
       Mesh    1
       Max CFL number:  0.17E-01 at (8,10,18)
       Max divergence:  0.17E-05 at (10,18,2)
       Min divergence: -0.17E-05 at (10,6,21)
       Max VN number:   0.17E-01 at (15,24,6)
       Radiation Loss to Boundaries:        -0.001 kW
       Mesh    2
       Max CFL number:  0.18E-01 at (18,20,18)
       Max divergence:  0.15E-05 at (9,18,2)
       Min divergence: -0.20E-05 at (7,2,21)
       Max VN number:   0.18E-01 at (19,31,1)
       Mesh    3
       Max CFL number:  0.17E-01 at (19,7,17)
       Max divergence:  0.18E-05 at (21,10,2)
       Min divergence: -0.21E-05 at (11,11,21)
       Max VN number:   0.25E-01 at (6,19,17)
       Mesh    4
       Max CFL number:  0.18E-01 at (16,16,17)
       Max divergence:  0.21E-05 at (23,30,2)
       Min divergence: -0.21E-05 at (1,12,21)
       Max VN number:   0.19E-01 at (9,24,16)
       Mesh    5
       Max CFL number:  0.18E-01 at (26,14,12)
       Max divergence:  0.18E-05 at (11,5,2)
       Min divergence: -0.17E-05 at (25,21,21)
       Max VN number:   0.21E-01 at (18,30,12)
       Mesh    6
       Max CFL number:  0.17E-01 at (2,5,10)
       Max divergence:  0.19E-05 at (20,3,2)
       Min divergence: -0.18E-05 at (5,6,21)
       Max VN number:   0.21E-01 at (8,29,20)
       Mesh    7
       Max CFL number:  0.18E-01 at (2,30,6)
       Max divergence:  0.14E-05 at (7,23,2)
       Min divergence: -0.21E-05 at (12,28,21)
       Max VN number:   0.20E-01 at (3,8,1)
       Radiation Loss to Boundaries:        -0.001 kW
       Mesh    8
       Max CFL number:  0.84E+00 at (17,16,3)
       Max divergence:  0.34E+01 at (14,15,3)
       Min divergence: -0.17E-05 at (18,29,21)
       Max VN number:   0.53E+00 at (16,15,3)
       Total Heat Release Rate:             57.101 kW
       Radiation Loss to Boundaries:       -18.238 kW
 
       Time Step       6   November 22, 2022  12:26:20
       Step Size:    0.720E-01 s, Total Time:       0.57 s
       Pressure Iterations: 3
       Maximum Velocity Error:  0.28E-01 on Mesh 8 at (14,15,2)
       Maximum Pressure Error:  0.16E+03 on Mesh 8 at (14,16,4)
       ---------------------------------------------------------------
       Mesh    1
       Max CFL number:  0.18E-01 at (13,3,5)
       Max divergence:  0.17E-05 at (10,18,2)
       Min divergence: -0.15E-05 at (10,6,21)
       Max VN number:   0.17E-01 at (4,1,22)
       Radiation Loss to Boundaries:        -0.001 kW
       Mesh    2
       Max CFL number:  0.18E-01 at (18,20,18)
       Max divergence:  0.16E-05 at (9,18,2)
       Min divergence: -0.19E-05 at (23,6,21)
       Max VN number:   0.18E-01 at (19,31,1)
       Mesh    3
       Max CFL number:  0.17E-01 at (19,7,17)
       Max divergence:  0.18E-05 at (21,10,2)
       Min divergence: -0.21E-05 at (11,11,21)
       Max VN number:   0.25E-01 at (6,19,17)
       Mesh    4
       Max CFL number:  0.18E-01 at (16,16,17)
       Max divergence:  0.21E-05 at (23,30,2)
       Min divergence: -0.20E-05 at (23,18,21)
       Max VN number:   0.19E-01 at (9,24,16)
       Mesh    5
       Max CFL number:  0.18E-01 at (26,14,12)
       Max divergence:  0.18E-05 at (11,5,2)
       Min divergence: -0.16E-05 at (25,21,21)
       Max VN number:   0.21E-01 at (18,30,12)
       Mesh    6
       Max CFL number:  0.17E-01 at (2,5,10)
       Max divergence:  0.19E-05 at (20,3,2)
       Min divergence: -0.18E-05 at (5,6,21)
       Max VN number:   0.21E-01 at (8,29,20)
       Mesh    7
       Max CFL number:  0.19E-01 at (2,30,6)
       Max divergence:  0.15E-05 at (7,23,2)
       Min divergence: -0.20E-05 at (12,28,21)
       Max VN number:   0.20E-01 at (3,8,1)
       Mesh    8
       Max CFL number:  0.61E+00 at (14,15,3)
       Max divergence:  0.54E+01 at (17,16,3)
       Min divergence: -0.12E-05 at (18,29,21)
       Max VN number:   0.15E+00 at (14,16,4)
       Total Heat Release Rate:             76.823 kW
       Radiation Loss to Boundaries:       -21.799 kW
 
       Time Step       7   November 22, 2022  12:26:21
       Step Size:    0.548E-01 s, Total Time:       0.63 s
       Pressure Iterations: 2
       Maximum Velocity Error:  0.35E-01 on Mesh 8 at (16,15,2)
       Maximum Pressure Error:  0.12E+03 on Mesh 8 at (16,15,3)
       ---------------------------------------------------------------
       Mesh    1
       Max CFL number:  0.15E-01 at (13,3,5)
       Max divergence:  0.17E-05 at (10,18,2)
       Min divergence: -0.15E-05 at (10,6,21)
       Max VN number:   0.14E-01 at (9,1,22)
       Radiation Loss to Boundaries:        -0.001 kW
       Mesh    2
       Max CFL number:  0.14E-01 at (18,20,18)
       Max divergence:  0.16E-05 at (9,18,2)
       Min divergence: -0.19E-05 at (23,6,21)
       Max VN number:   0.14E-01 at (19,31,1)
       Mesh    3
       Max CFL number:  0.13E-01 at (19,7,17)
       Max divergence:  0.18E-05 at (12,27,2)
       Min divergence: -0.21E-05 at (11,11,21)
       Max VN number:   0.19E-01 at (6,19,17)
       Mesh    4
       Max CFL number:  0.13E-01 at (16,16,17)
       Max divergence:  0.21E-05 at (23,30,2)
       Min divergence: -0.20E-05 at (23,18,21)
       Max VN number:   0.15E-01 at (9,24,16)
       Mesh    5
       Max CFL number:  0.14E-01 at (26,14,12)
       Max divergence:  0.18E-05 at (11,5,2)
       Min divergence: -0.16E-05 at (25,21,21)
       Max VN number:   0.16E-01 at (18,30,12)
       Mesh    6
       Max CFL number:  0.13E-01 at (2,5,10)
       Max divergence:  0.19E-05 at (20,3,2)
       Min divergence: -0.18E-05 at (5,6,21)
       Max VN number:   0.16E-01 at (8,29,20)
       Mesh    7
       Max CFL number:  0.15E-01 at (2,18,11)
       Max divergence:  0.15E-05 at (7,23,2)
       Min divergence: -0.20E-05 at (12,28,21)
       Max VN number:   0.15E-01 at (25,23,1)
       Mesh    8
       Max CFL number:  0.80E+00 at (17,13,3)
       Max divergence:  0.55E+01 at (14,13,3)
       Min divergence: -0.11E+01 at (16,15,3)
       Max VN number:   0.26E+00 at (17,13,4)
       Total Heat Release Rate:             87.443 kW
       Radiation Loss to Boundaries:       -25.627 kW
 
       Time Step       8   November 22, 2022  12:26:21
       Step Size:    0.439E-01 s, Total Time:       0.67 s
       Pressure Iterations: 2
       Maximum Velocity Error:  0.15E-01 on Mesh 8 at (16,15,2)
       Maximum Pressure Error:  0.45E+02 on Mesh 8 at (14,14,3)
       ---------------------------------------------------------------
       Mesh    1
       Max CFL number:  0.12E-01 at (13,3,5)
       Max divergence:  0.17E-05 at (10,18,2)
       Min divergence: -0.15E-05 at (9,5,2)
       Max VN number:   0.11E-01 at (9,1,22)
       Radiation Loss to Boundaries:        -0.001 kW
       Mesh    2
       Max CFL number:  0.11E-01 at (18,20,18)
       Max divergence:  0.16E-05 at (9,18,2)
       Min divergence: -0.18E-05 at (23,6,21)
       Max VN number:   0.11E-01 at (19,31,1)
       Mesh    3
       Max CFL number:  0.10E-01 at (19,7,17)
       Max divergence:  0.18E-05 at (12,27,2)
       Min divergence: -0.21E-05 at (11,11,21)
       Max VN number:   0.15E-01 at (6,19,17)
       Mesh    4
       Max CFL number:  0.11E-01 at (16,16,17)
       Max divergence:  0.21E-05 at (23,30,2)
       Min divergence: -0.20E-05 at (23,18,21)
       Max VN number:   0.12E-01 at (9,24,16)
       Mesh    5
       Max CFL number:  0.11E-01 at (26,14,12)
       Max divergence:  0.18E-05 at (11,5,2)
       Min divergence: -0.16E-05 at (25,21,21)
       Max VN number:   0.13E-01 at (18,30,12)
       Mesh    6
       Max CFL number:  0.10E-01 at (2,5,10)
       Max divergence:  0.19E-05 at (20,3,2)
       Min divergence: -0.18E-05 at (5,6,21)
       Max VN number:   0.12E-01 at (8,29,20)
       Mesh    7
       Max CFL number:  0.13E-01 at (2,18,11)
       Max divergence:  0.15E-05 at (7,23,2)
       Min divergence: -0.20E-05 at (12,28,21)
       Max VN number:   0.13E-01 at (25,23,1)
       Mesh    8
       Max CFL number:  0.83E+00 at (17,13,3)
       Max divergence:  0.54E+01 at (16,16,3)
       Min divergence: -0.96E+00 at (15,14,3)
       Max VN number:   0.26E+00 at (17,13,4)
       Total Heat Release Rate:             83.028 kW
       Radiation Loss to Boundaries:       -14.590 kW
 
       Time Step       9   November 22, 2022  12:26:21
       Step Size:    0.439E-01 s, Total Time:       0.71 s
       Pressure Iterations: 1
       Maximum Velocity Error:  0.18E-01 on Mesh 8 at (16,16,2)
       Maximum Pressure Error:  0.77E+02 on Mesh 8 at (16,16,3)
       ---------------------------------------------------------------
       Mesh    1
       Max CFL number:  0.13E-01 at (13,3,5)
       Max divergence:  0.17E-05 at (10,18,2)
       Min divergence: -0.13E-05 at (9,5,2)
       Max VN number:   0.12E-01 at (6,8,1)
       Mesh    2
       Max CFL number:  0.11E-01 at (18,20,18)
       Max divergence:  0.16E-05 at (9,18,2)
       Min divergence: -0.18E-05 at (23,6,21)
       Max VN number:   0.11E-01 at (19,31,1)
       Mesh    3
       Max CFL number:  0.10E-01 at (19,7,17)
       Max divergence:  0.18E-05 at (12,27,2)
       Min divergence: -0.21E-05 at (11,11,21)
       Max VN number:   0.15E-01 at (6,19,17)
       Mesh    4
       Max CFL number:  0.11E-01 at (16,16,17)
       Max divergence:  0.21E-05 at (23,30,2)
       Min divergence: -0.20E-05 at (23,18,21)
       Max VN number:   0.12E-01 at (9,24,16)
       Mesh    5
       Max CFL number:  0.11E-01 at (26,14,12)
       Max divergence:  0.18E-05 at (11,5,2)
       Min divergence: -0.16E-05 at (25,21,21)
       Max VN number:   0.13E-01 at (18,30,12)
       Mesh    6
       Max CFL number:  0.11E-01 at (2,5,10)
       Max divergence:  0.19E-05 at (20,3,2)
       Min divergence: -0.18E-05 at (5,6,21)
       Max VN number:   0.12E-01 at (8,29,20)
       Mesh    7
       Max CFL number:  0.14E-01 at (2,18,11)
       Max divergence:  0.15E-05 at (7,23,2)
       Min divergence: -0.19E-05 at (12,28,21)
       Max VN number:   0.13E-01 at (25,23,1)
       Mesh    8
       Max CFL number:  0.91E+00 at (17,16,3)
       Max divergence:  0.53E+01 at (14,15,3)
       Min divergence: -0.12E+01 at (15,14,3)
       Max VN number:   0.26E+00 at (17,13,4)
       Total Heat Release Rate:             81.626 kW
       Radiation Loss to Boundaries:       -10.690 kW
 
       Time Step      10   November 22, 2022  12:26:21
       Step Size:    0.439E-01 s, Total Time:       0.76 s
       Pressure Iterations: 2
       Maximum Velocity Error:  0.21E-01 on Mesh 8 at (16,14,2)
       Maximum Pressure Error:  0.17E+03 on Mesh 8 at (16,14,4)
       ---------------------------------------------------------------
       Mesh    1
       Max CFL number:  0.13E-01 at (13,3,5)
       Max divergence:  0.17E-05 at (10,18,2)
       Min divergence: -0.13E-05 at (9,5,2)
       Max VN number:   0.13E-01 at (6,8,1)
       Mesh    2
       Max CFL number:  0.11E-01 at (18,20,18)
       Max divergence:  0.16E-05 at (9,18,2)
       Min divergence: -0.18E-05 at (23,6,21)
       Max VN number:   0.11E-01 at (19,31,1)
       Mesh    3
       Max CFL number:  0.10E-01 at (19,7,17)
       Max divergence:  0.18E-05 at (12,27,2)
       Min divergence: -0.21E-05 at (11,11,21)
       Max VN number:   0.15E-01 at (6,19,17)
       Mesh    4
       Max CFL number:  0.11E-01 at (16,16,17)
       Max divergence:  0.21E-05 at (23,30,2)
       Min divergence: -0.20E-05 at (23,18,21)
       Max VN number:   0.12E-01 at (9,24,16)
       Mesh    5
       Max CFL number:  0.11E-01 at (26,14,12)
       Max divergence:  0.18E-05 at (11,5,2)
       Min divergence: -0.16E-05 at (25,21,21)
       Max VN number:   0.13E-01 at (18,30,12)
       Mesh    6
       Max CFL number:  0.11E-01 at (2,5,10)
       Max divergence:  0.19E-05 at (20,3,2)
       Min divergence: -0.18E-05 at (5,6,21)
       Max VN number:   0.12E-01 at (8,29,20)
       Mesh    7
       Max CFL number:  0.15E-01 at (2,18,11)
       Max divergence:  0.15E-05 at (7,23,2)
       Min divergence: -0.19E-05 at (12,28,21)
       Max VN number:   0.14E-01 at (25,23,1)
       Mesh    8
       Max CFL number:  0.97E+00 at (17,14,3)
       Max divergence:  0.50E+01 at (17,15,3)
       Min divergence: -0.19E+01 at (15,14,3)
       Max VN number:   0.37E+00 at (17,13,5)
       Total Heat Release Rate:             73.143 kW
       Radiation Loss to Boundaries:        -6.774 kW
 
       Time Step      20   November 22, 2022  12:26:22
       Step Size:    0.133E-01 s, Total Time:       0.97 s
       Pressure Iterations: 1
       Maximum Velocity Error:  0.13E-01 on Mesh 8 at (17,14,2)
       Maximum Pressure Error:  0.24E+03 on Mesh 8 at (16,15,5)
       ---------------------------------------------------------------
       Mesh    1
       Max CFL number:  0.59E-02 at (10,2,20)
       Max divergence:  0.28E-05 at (6,3,6)
       Min divergence: -0.12E-05 at (10,31,12)
       Max VN number:   0.37E-02 at (2,16,3)
       Mesh    2
       Max CFL number:  0.46E-02 at (4,2,6)
       Max divergence:  0.17E-05 at (9,18,2)
       Min divergence: -0.13E-05 at (23,6,21)
       Max VN number:   0.37E-02 at (26,4,1)
       Mesh    3
       Max CFL number:  0.34E-02 at (4,6,22)
       Max divergence:  0.18E-05 at (12,27,2)
       Min divergence: -0.20E-05 at (11,11,21)
       Max VN number:   0.45E-02 at (6,19,17)
       Mesh    4
       Max CFL number:  0.32E-02 at (16,16,17)
       Max divergence:  0.21E-05 at (23,30,2)
       Min divergence: -0.20E-05 at (23,18,21)
       Max VN number:   0.36E-02 at (4,26,20)
       Mesh    5
       Max CFL number:  0.32E-02 at (8,31,14)
       Max divergence:  0.18E-05 at (11,5,2)
       Min divergence: -0.17E-05 at (11,28,21)
       Max VN number:   0.36E-02 at (18,30,12)
       Mesh    6
       Max CFL number:  0.69E-02 at (6,12,18)
       Max divergence:  0.19E-05 at (20,3,2)
       Min divergence: -0.19E-05 at (6,17,19)
       Max VN number:   0.11E-01 at (7,11,18)
       Mesh    7
       Max CFL number:  0.80E-02 at (1,18,13)
       Max divergence:  0.36E-05 at (1,21,5)
       Min divergence: -0.18E-05 at (12,28,21)
       Max VN number:   0.50E-02 at (25,23,1)
       Radiation Loss to Boundaries:         0.001 kW
       Mesh    8
       Max CFL number:  0.88E+00 at (16,15,5)
       Max divergence:  0.67E+01 at (15,16,3)
       Min divergence: -0.29E+00 at (14,16,7)
       Max VN number:   0.18E+00 at (16,15,5)
       Total Heat Release Rate:            130.729 kW
       Radiation Loss to Boundaries:       -10.147 kW
 
       Time Step      30   November 22, 2022  12:26:24
       Step Size:    0.118E-01 s, Total Time:       1.09 s
       Pressure Iterations: 1
       Maximum Velocity Error:  0.16E-01 on Mesh 8 at (16,15,2)
       Maximum Pressure Error:  0.24E+03 on Mesh 8 at (16,15,10)
       ---------------------------------------------------------------
       Mesh    1
       Max CFL number:  0.52E-02 at (16,1,20)
       Max divergence:  0.18E-03 at (13,1,6)
       Min divergence: -0.12E-05 at (10,31,12)
       Max VN number:   0.37E-02 at (6,8,1)
       Radiation Loss to Boundaries:         0.104 kW
       Mesh    2
       Max CFL number:  0.46E-02 at (3,2,22)
       Max divergence:  0.17E-05 at (9,18,2)
       Min divergence: -0.16E-05 at (7,2,21)
       Max VN number:   0.33E-02 at (27,18,1)
       Mesh    3
       Max CFL number:  0.47E-02 at (20,26,18)
       Max divergence:  0.18E-05 at (12,27,2)
       Min divergence: -0.19E-05 at (11,11,21)
       Max VN number:   0.55E-02 at (18,25,18)
       Mesh    4
       Max CFL number:  0.28E-02 at (16,16,17)
       Max divergence:  0.21E-05 at (23,30,2)
       Min divergence: -0.19E-05 at (23,18,21)
       Max VN number:   0.32E-02 at (4,26,20)
       Mesh    5
       Max CFL number:  0.36E-02 at (17,28,18)
       Max divergence:  0.18E-05 at (11,5,2)
       Min divergence: -0.18E-05 at (11,28,21)
       Max VN number:   0.37E-02 at (12,29,18)
       Mesh    6
       Max CFL number:  0.13E-01 at (6,11,18)
       Max divergence:  0.32E-05 at (8,17,18)
       Min divergence: -0.34E-05 at (6,17,19)
       Max VN number:   0.21E-01 at (7,11,18)
       Mesh    7
       Max CFL number:  0.75E-02 at (1,18,13)
       Max divergence:  0.30E-03 at (1,16,5)
       Min divergence: -0.45E-06 at (26,31,3)
       Max VN number:   0.38E-02 at (25,23,1)
       Radiation Loss to Boundaries:         0.205 kW
       Mesh    8
       Max CFL number:  0.83E+00 at (16,15,7)
       Max divergence:  0.73E+01 at (17,15,3)
       Min divergence: -0.11E+01 at (14,16,11)
       Max VN number:   0.20E+00 at (16,15,8)
       Total Heat Release Rate:            116.099 kW
       Radiation Loss to Boundaries:        -8.533 kW
 
       Time Step      40   November 22, 2022  12:26:25
       Step Size:    0.129E-01 s, Total Time:       1.21 s
       Pressure Iterations: 1
       Maximum Velocity Error:  0.19E-01 on Mesh 8 at (16,15,2)
       Maximum Pressure Error:  0.61E+03 on Mesh 8 at (16,14,7)
       ---------------------------------------------------------------
       Mesh    1
       Max CFL number:  0.56E-02 at (16,1,20)
       Max divergence:  0.11E-03 at (12,1,10)
       Min divergence: -0.12E-05 at (10,31,12)
       Max VN number:   0.35E-02 at (6,8,1)
       Radiation Loss to Boundaries:         0.128 kW
       Mesh    2
       Max CFL number:  0.45E-02 at (3,3,11)
       Max divergence:  0.31E-04 at (14,1,22)
       Min divergence: -0.15E-05 at (4,19,21)
       Max VN number:   0.34E-02 at (24,14,1)
       Radiation Loss to Boundaries:         0.006 kW
       Mesh    3
       Max CFL number:  0.10E-01 at (20,26,18)
       Max divergence:  0.26E-05 at (17,26,19)
       Min divergence: -0.24E-05 at (14,24,19)
       Max VN number:   0.14E-01 at (13,25,18)
       Mesh    4
       Max CFL number:  0.32E-02 at (2,15,8)
       Max divergence:  0.21E-05 at (23,30,2)
       Min divergence: -0.18E-05 at (23,18,21)
       Max VN number:   0.35E-02 at (4,26,20)
       Mesh    5
       Max CFL number:  0.72E-02 at (17,28,18)
       Max divergence:  0.18E-05 at (11,5,2)
       Min divergence: -0.21E-05 at (12,28,19)
       Max VN number:   0.11E-01 at (10,29,18)
       Mesh    6
       Max CFL number:  0.22E-01 at (8,18,18)
       Max divergence:  0.69E-04 at (1,20,10)
       Min divergence: -0.38E-05 at (6,14,19)
       Max VN number:   0.34E-01 at (7,18,18)
       Radiation Loss to Boundaries:         0.019 kW
       Mesh    7
       Max CFL number:  0.92E-02 at (1,15,13)
       Max divergence:  0.22E-03 at (1,16,5)
       Min divergence:  0.15E-05 at (26,2,5)
       Max VN number:   0.30E-02 at (25,23,1)
       Radiation Loss to Boundaries:         0.238 kW
       Mesh    8
       Max CFL number:  0.88E+00 at (16,14,5)
       Max divergence:  0.77E+01 at (16,14,5)
       Min divergence: -0.13E+01 at (16,15,13)
       Max VN number:   0.26E+00 at (16,15,12)
       Total Heat Release Rate:            133.304 kW
       Radiation Loss to Boundaries:       -13.922 kW
 
       Time Step      50   November 22, 2022  12:26:26
       Step Size:    0.959E-02 s, Total Time:       1.32 s
       Pressure Iterations: 1
       Maximum Velocity Error:  0.90E-02 on Mesh 6 at (0,1,22)
       Maximum Pressure Error:  0.67E+03 on Mesh 8 at (16,15,11)
       ---------------------------------------------------------------
       Mesh    1
       Max CFL number:  0.51E-02 at (16,1,20)
       Max divergence:  0.10E-03 at (13,1,10)
       Min divergence: -0.12E-05 at (10,31,12)
       Max VN number:   0.25E-02 at (14,6,1)
       Radiation Loss to Boundaries:         0.132 kW
       Mesh    2
       Max CFL number:  0.32E-02 at (3,2,22)
       Max divergence:  0.51E-04 at (1,1,9)
       Min divergence: -0.11E-05 at (12,30,10)
       Max VN number:   0.24E-02 at (19,31,1)
       Radiation Loss to Boundaries:         0.060 kW
       Mesh    3
       Max CFL number:  0.12E-01 at (20,26,18)
       Max divergence:  0.39E-05 at (17,26,19)
       Min divergence: -0.36E-05 at (14,24,19)
       Max VN number:   0.17E-01 at (13,25,18)
       Mesh    4
       Max CFL number:  0.28E-02 at (8,1,17)
       Max divergence:  0.21E-05 at (23,30,2)
       Min divergence: -0.18E-05 at (23,18,21)
       Max VN number:   0.26E-02 at (4,26,20)
       Mesh    5
       Max CFL number:  0.83E-02 at (10,28,18)
       Max divergence:  0.24E-05 at (11,30,19)
       Min divergence: -0.30E-05 at (12,28,19)
       Max VN number:   0.14E-01 at (10,29,18)
       Mesh    6
       Max CFL number:  0.23E-01 at (8,18,18)
       Max divergence:  0.73E-04 at (6,21,11)
       Min divergence: -0.51E-05 at (6,14,19)
       Max VN number:   0.38E-01 at (7,18,18)
       Radiation Loss to Boundaries:         0.023 kW
       Mesh    7
       Max CFL number:  0.97E-02 at (1,16,17)
       Max divergence:  0.21E-03 at (1,16,5)
       Min divergence:  0.21E-05 at (27,15,7)
       Max VN number:   0.18E-02 at (23,23,22)
       Radiation Loss to Boundaries:         0.245 kW
       Mesh    8
       Max CFL number:  0.97E+00 at (16,15,9)
       Max divergence:  0.78E+01 at (16,13,3)
       Min divergence: -0.23E+01 at (15,14,15)
       Max VN number:   0.26E+00 at (16,15,9)
       Total Heat Release Rate:            120.717 kW
       Radiation Loss to Boundaries:       -13.084 kW
 
       Time Step      60   November 22, 2022  12:26:27
       Step Size:    0.853E-02 s, Total Time:       1.40 s
       Pressure Iterations: 1
       Maximum Velocity Error:  0.85E-02 on Mesh 1 at (27,24,22)
       Maximum Pressure Error:  0.45E+03 on Mesh 8 at (15,14,19)
       ---------------------------------------------------------------
       Mesh    1
       Max CFL number:  0.51E-02 at (16,1,20)
       Max divergence:  0.14E-03 at (18,1,1)
       Min divergence: -0.11E-05 at (10,31,12)
       Max VN number:   0.22E-02 at (14,6,1)
       Radiation Loss to Boundaries:         0.167 kW
       Mesh    2
       Max CFL number:  0.33E-02 at (1,2,22)
       Max divergence:  0.46E-04 at (1,1,11)
       Min divergence: -0.11E-05 at (12,30,10)
       Max VN number:   0.21E-02 at (19,31,1)
       Radiation Loss to Boundaries:         0.068 kW
       Mesh    3
       Max CFL number:  0.14E-01 at (20,26,18)
       Max divergence:  0.13E-04 at (1,23,15)
       Min divergence: -0.47E-05 at (14,24,19)
       Max VN number:   0.21E-01 at (20,25,18)
       Radiation Loss to Boundaries:         0.003 kW
       Mesh    4
       Max CFL number:  0.29E-02 at (10,1,9)
       Max divergence:  0.21E-05 at (23,30,2)
       Min divergence: -0.17E-05 at (23,18,21)
       Max VN number:   0.23E-02 at (4,26,20)
       Mesh    5
       Max CFL number:  0.97E-02 at (10,28,18)
       Max divergence:  0.49E-05 at (1,18,16)
       Min divergence: -0.37E-05 at (12,28,19)
       Max VN number:   0.16E-01 at (10,29,18)
       Mesh    6
       Max CFL number:  0.28E-01 at (8,18,18)
       Max divergence:  0.38E-04 at (6,21,14)
       Min divergence: -0.52E-05 at (6,14,19)
       Max VN number:   0.46E-01 at (7,18,18)
       Radiation Loss to Boundaries:         0.021 kW
       Mesh    7
       Max CFL number:  0.11E-01 at (1,15,20)
       Max divergence:  0.29E-03 at (1,14,6)
       Min divergence:  0.33E-05 at (25,15,21)
       Max VN number:   0.17E-02 at (6,22,22)
       Radiation Loss to Boundaries:         0.326 kW
       Mesh    8
       Max CFL number:  0.87E+00 at (16,15,16)
       Max divergence:  0.80E+01 at (17,15,3)
       Min divergence: -0.35E+01 at (15,15,10)
       Max VN number:   0.24E+00 at (16,15,15)
       Total Heat Release Rate:            129.572 kW
       Radiation Loss to Boundaries:       -18.738 kW
 
       Time Step      70   November 22, 2022  12:26:28
       Step Size:    0.939E-02 s, Total Time:       1.49 s
       Pressure Iterations: 1
       Maximum Velocity Error:  0.83E-02 on Mesh 2 at (27,24,22)
       Maximum Pressure Error:  0.54E+03 on Mesh 8 at (16,15,22)
       ---------------------------------------------------------------
       Mesh    1
       Max CFL number:  0.60E-02 at (16,1,20)
       Max divergence:  0.16E-03 at (18,1,9)
       Min divergence: -0.11E-05 at (10,31,12)
       Max VN number:   0.27E-02 at (14,6,1)
       Radiation Loss to Boundaries:         0.197 kW
       Mesh    2
       Max CFL number:  0.38E-02 at (1,2,22)
       Max divergence:  0.47E-04 at (1,1,11)
       Min divergence: -0.11E-05 at (12,30,10)
       Max VN number:   0.25E-02 at (24,14,1)
       Radiation Loss to Boundaries:         0.068 kW
       Mesh    3
       Max CFL number:  0.21E-01 at (20,26,18)
       Max divergence:  0.26E-04 at (2,2,14)
       Min divergence: -0.65E-05 at (14,24,19)
       Max VN number:   0.33E-01 at (20,25,18)
       Radiation Loss to Boundaries:         0.009 kW
       Mesh    4
       Max CFL number:  0.34E-02 at (10,1,9)
       Max divergence:  0.21E-05 at (23,30,2)
       Min divergence: -0.16E-05 at (23,18,21)
       Max VN number:   0.26E-02 at (4,26,20)
       Mesh    5
       Max CFL number:  0.12E-01 at (10,28,18)
       Max divergence:  0.46E-05 at (1,11,18)
       Min divergence: -0.41E-05 at (12,28,19)
       Max VN number:   0.21E-01 at (10,29,18)
       Mesh    6
       Max CFL number:  0.37E-01 at (6,18,18)
       Max divergence:  0.48E-04 at (1,9,13)
       Min divergence: -0.67E-05 at (6,14,19)
       Max VN number:   0.62E-01 at (7,18,18)
       Radiation Loss to Boundaries:         0.025 kW
       Mesh    7
       Max CFL number:  0.15E-01 at (1,14,22)
       Max divergence:  0.31E-03 at (1,13,6)
       Min divergence:  0.51E-05 at (27,15,21)
       Max VN number:   0.19E-02 at (6,22,22)
       Radiation Loss to Boundaries:         0.379 kW
       Mesh    8
       Max CFL number:  0.81E+00 at (15,15,15)
       Max divergence:  0.80E+01 at (16,16,3)
       Min divergence: -0.26E+01 at (15,14,10)
       Max VN number:   0.21E+00 at (16,15,21)
       Total Heat Release Rate:            139.094 kW
       Radiation Loss to Boundaries:       -21.393 kW
 
       Time Step      80   November 22, 2022  12:26:29
       Step Size:    0.939E-02 s, Total Time:       1.59 s
       Pressure Iterations: 1
       Maximum Velocity Error:  0.46E-02 on Mesh 6 at (0,1,22)
       Maximum Pressure Error:  0.46E+03 on Mesh 8 at (15,14,22)
       ---------------------------------------------------------------
       Mesh    1
       Max CFL number:  0.65E-02 at (16,1,20)
       Max divergence:  0.17E-03 at (18,1,9)
       Min divergence: -0.11E-05 at (10,31,12)
       Max VN number:   0.28E-02 at (14,6,1)
       Radiation Loss to Boundaries:         0.230 kW
       Mesh    2
       Max CFL number:  0.45E-02 at (1,2,22)
       Max divergence:  0.72E-04 at (1,1,1)
       Min divergence: -0.11E-05 at (12,30,10)
       Max VN number:   0.25E-02 at (10,18,1)
       Radiation Loss to Boundaries:         0.098 kW
       Mesh    3
       Max CFL number:  0.27E-01 at (20,26,18)
       Max divergence:  0.22E-04 at (6,5,15)
       Min divergence: -0.88E-05 at (14,24,19)
       Max VN number:   0.45E-01 at (20,25,18)
       Radiation Loss to Boundaries:         0.009 kW
       Mesh    4
       Max CFL number:  0.35E-02 at (10,1,9)
       Max divergence:  0.21E-05 at (23,30,2)
       Min divergence: -0.16E-05 at (23,18,21)
       Max VN number:   0.26E-02 at (4,26,20)
       Mesh    5
       Max CFL number:  0.13E-01 at (10,28,18)
       Max divergence:  0.47E-05 at (1,11,18)
       Min divergence: -0.43E-05 at (12,28,19)
       Max VN number:   0.22E-01 at (10,29,18)
       Mesh    6
       Max CFL number:  0.42E-01 at (6,18,18)
       Max divergence:  0.51E-04 at (6,8,14)
       Min divergence: -0.80E-05 at (6,14,19)
       Max VN number:   0.71E-01 at (7,18,18)
       Radiation Loss to Boundaries:         0.027 kW
       Mesh    7
       Max CFL number:  0.19E-01 at (1,14,22)
       Max divergence:  0.32E-03 at (1,13,6)
       Min divergence:  0.54E-05 at (27,15,21)
       Max VN number:   0.19E-02 at (6,22,22)
       Radiation Loss to Boundaries:         0.441 kW
       Mesh    8
       Max CFL number:  0.87E+00 at (15,14,21)
       Max divergence:  0.81E+01 at (14,15,3)
       Min divergence: -0.32E+01 at (15,14,11)
       Max VN number:   0.38E+00 at (18,16,22)
       Total Heat Release Rate:            148.653 kW
       Radiation Loss to Boundaries:       -25.290 kW
 
       Time Step      90   November 22, 2022  12:26:31
       Step Size:    0.798E-02 s, Total Time:       1.68 s
       Pressure Iterations: 1
       Maximum Velocity Error:  0.45E-02 on Mesh 3 at (27,24,22)
       Maximum Pressure Error:  0.55E+03 on Mesh 8 at (16,14,13)
       ---------------------------------------------------------------
       Mesh    1
       Max CFL number:  0.57E-02 at (16,1,20)
       Max divergence:  0.23E-03 at (13,1,10)
       Min divergence: -0.11E-05 at (10,31,12)
       Max VN number:   0.24E-02 at (14,6,1)
       Radiation Loss to Boundaries:         0.304 kW
       Mesh    2
       Max CFL number:  0.40E-02 at (1,2,22)
       Max divergence:  0.10E-03 at (1,1,9)
       Min divergence: -0.11E-05 at (12,30,10)
       Max VN number:   0.20E-02 at (10,18,1)
       Radiation Loss to Boundaries:         0.122 kW
       Mesh    3
       Max CFL number:  0.28E-01 at (13,24,18)
       Max divergence:  0.21E-04 at (6,5,14)
       Min divergence: -0.11E-04 at (14,24,19)
       Max VN number:   0.47E-01 at (20,25,18)
       Radiation Loss to Boundaries:         0.010 kW
       Mesh    4
       Max CFL number:  0.29E-02 at (10,1,9)
       Max divergence:  0.21E-05 at (23,30,2)
       Min divergence: -0.17E-05 at (23,18,21)
       Max VN number:   0.22E-02 at (4,26,20)
       Mesh    5
       Max CFL number:  0.10E-01 at (10,28,18)
       Max divergence:  0.51E-05 at (1,11,18)
       Min divergence: -0.42E-05 at (12,28,19)
       Max VN number:   0.18E-01 at (10,29,18)
       Mesh    6
       Max CFL number:  0.42E-01 at (6,18,18)
       Max divergence:  0.56E-04 at (6,8,13)
       Min divergence: -0.96E-05 at (6,15,18)
       Max VN number:   0.70E-01 at (7,18,18)
       Radiation Loss to Boundaries:         0.032 kW
       Mesh    7
       Max CFL number:  0.20E-01 at (1,14,22)
       Max divergence:  0.46E-03 at (1,14,6)
       Min divergence:  0.63E-05 at (27,15,21)
       Max VN number:   0.16E-02 at (6,22,22)
       Radiation Loss to Boundaries:         0.581 kW
       Mesh    8
       Max CFL number:  0.88E+00 at (16,15,18)
       Max divergence:  0.82E+01 at (14,15,3)
       Min divergence: -0.39E+01 at (15,14,14)
       Max VN number:   0.52E+00 at (13,18,22)
       Total Heat Release Rate:            147.612 kW
       Radiation Loss to Boundaries:       -24.411 kW
 
       Time Step     100   November 22, 2022  12:26:32
       Step Size:    0.837E-02 s, Total Time:       1.76 s
       Pressure Iterations: 1
       Maximum Velocity Error:  0.38E-02 on Mesh 7 at (0,14,22)
       Maximum Pressure Error:  0.56E+03 on Mesh 8 at (16,15,16)
       ---------------------------------------------------------------
       Mesh    1
       Max CFL number:  0.62E-02 at (15,1,22)
       Max divergence:  0.27E-03 at (13,1,10)
       Min divergence: -0.11E-05 at (10,31,12)
       Max VN number:   0.25E-02 at (14,6,1)
       Radiation Loss to Boundaries:         0.358 kW
       Mesh    2
       Max CFL number:  0.39E-02 at (1,2,22)
       Max divergence:  0.11E-03 at (1,1,10)
       Min divergence: -0.11E-05 at (12,30,10)
       Max VN number:   0.21E-02 at (10,18,1)
       Radiation Loss to Boundaries:         0.134 kW
       Mesh    3
       Max CFL number:  0.34E-01 at (13,24,18)
       Max divergence:  0.23E-04 at (6,5,15)
       Min divergence: -0.13E-04 at (14,24,19)
       Max VN number:   0.58E-01 at (20,25,18)
       Radiation Loss to Boundaries:         0.012 kW
       Mesh    4
       Max CFL number:  0.29E-02 at (12,2,17)
       Max divergence:  0.21E-05 at (23,30,2)
       Min divergence: -0.17E-05 at (23,18,21)
       Max VN number:   0.24E-02 at (4,26,20)
       Mesh    5
       Max CFL number:  0.97E-02 at (10,28,18)
       Max divergence:  0.49E-05 at (1,11,18)
       Min divergence: -0.39E-05 at (12,28,19)
       Max VN number:   0.17E-01 at (10,29,18)
       Mesh    6
       Max CFL number:  0.50E-01 at (6,18,18)
       Max divergence:  0.82E-04 at (6,21,14)
       Min divergence: -0.12E-04 at (6,15,18)
       Max VN number:   0.86E-01 at (7,18,18)
       Radiation Loss to Boundaries:         0.046 kW
       Mesh    7
       Max CFL number:  0.25E-01 at (1,14,22)
       Max divergence:  0.55E-03 at (1,14,6)
       Min divergence:  0.73E-05 at (27,15,21)
       Max VN number:   0.19E-02 at (1,14,22)
       Radiation Loss to Boundaries:         0.678 kW
       Mesh    8
       Max CFL number:  0.80E+00 at (16,15,14)
       Max divergence:  0.83E+01 at (14,15,3)
       Min divergence: -0.44E+01 at (16,14,12)
       Max VN number:   0.57E+00 at (11,10,22)
       Total Heat Release Rate:            150.211 kW
       Radiation Loss to Boundaries:       -26.231 kW
 
       Time Step     200   November 22, 2022  12:26:44
       Step Size:    0.111E-01 s, Total Time:       2.78 s
       Pressure Iterations: 2
       Maximum Velocity Error:  0.28E-01 on Mesh 7 at (0,15,22)
       Maximum Pressure Error:  0.30E+03 on Mesh 8 at (16,15,14)
       ---------------------------------------------------------------
       Mesh    1
       Max CFL number:  0.41E+00 at (15,2,22)
       Max divergence:  0.87E-01 at (16,4,21)
       Min divergence: -0.14E+00 at (12,6,22)
       Max VN number:   0.26E+00 at (11,5,22)
       Radiation Loss to Boundaries:         0.358 kW
       Mesh    2
       Max CFL number:  0.28E+00 at (1,1,22)
       Max divergence:  0.63E-01 at (2,1,21)
       Min divergence: -0.84E-01 at (1,1,22)
       Max VN number:   0.39E-01 at (1,1,22)
       Radiation Loss to Boundaries:         0.269 kW
       Mesh    3
       Max CFL number:  0.82E-01 at (14,24,17)
       Max divergence:  0.65E-04 at (6,4,16)
       Min divergence: -0.38E-04 at (19,24,18)
       Max VN number:   0.10E+00 at (16,25,18)
       Radiation Loss to Boundaries:         0.028 kW
       Mesh    4
       Max CFL number:  0.48E-02 at (1,30,4)
       Max divergence:  0.20E-05 at (23,30,2)
       Min divergence: -0.20E-05 at (23,18,21)
       Max VN number:   0.31E-02 at (4,26,20)
       Mesh    5
       Max CFL number:  0.11E-01 at (10,30,18)
       Max divergence:  0.46E-05 at (1,11,17)
       Min divergence: -0.31E-05 at (10,30,18)
       Max VN number:   0.17E-01 at (10,29,18)
       Radiation Loss to Boundaries:         0.002 kW
       Mesh    6
       Max CFL number:  0.82E-01 at (6,18,18)
       Max divergence:  0.14E-03 at (6,8,15)
       Min divergence: -0.18E-04 at (6,15,18)
       Max VN number:   0.92E-01 at (7,18,11)
       Radiation Loss to Boundaries:         0.078 kW
       Mesh    7
       Max CFL number:  0.43E+00 at (3,15,22)
       Max divergence:  0.23E+00 at (3,14,21)
       Min divergence: -0.28E+00 at (3,15,22)
       Max VN number:   0.40E+00 at (3,29,22)
       Radiation Loss to Boundaries:         0.609 kW
       Mesh    8
       Max CFL number:  0.95E+00 at (16,15,13)
       Max divergence:  0.86E+01 at (15,16,3)
       Min divergence: -0.40E+01 at (16,15,13)
       Max VN number:   0.36E+00 at (10,2,22)
       Total Heat Release Rate:            169.292 kW
       Radiation Loss to Boundaries:       -30.273 kW
 
       Time Step     300   November 22, 2022  12:26:56
       Step Size:    0.988E-02 s, Total Time:       3.78 s
       Pressure Iterations: 1
       Maximum Velocity Error:  0.44E-01 on Mesh 8 at (18,32,22)
       Maximum Pressure Error:  0.66E+03 on Mesh 8 at (18,15,15)
       ---------------------------------------------------------------
       Mesh    1
       Max CFL number:  0.33E+00 at (17,1,22)
       Max divergence:  0.20E+00 at (13,6,21)
       Min divergence: -0.30E+00 at (13,6,22)
       Max VN number:   0.23E+00 at (10,3,22)
       Radiation Loss to Boundaries:         0.288 kW
       Mesh    2
       Max CFL number:  0.23E+00 at (8,6,22)
       Max divergence:  0.43E-01 at (7,3,21)
       Min divergence: -0.68E-01 at (6,2,22)
       Max VN number:   0.21E+00 at (9,6,22)
       Radiation Loss to Boundaries:         0.198 kW
       Mesh    3
       Max CFL number:  0.50E-01 at (14,27,17)
       Max divergence:  0.67E-04 at (6,4,16)
       Min divergence: -0.27E-04 at (16,26,19)
       Max VN number:   0.46E-01 at (21,27,1)
       Radiation Loss to Boundaries:         0.029 kW
       Mesh    4
       Max CFL number:  0.22E-02 at (8,1,17)
       Max divergence:  0.19E-05 at (23,30,2)
       Min divergence: -0.17E-05 at (23,18,21)
       Max VN number:   0.27E-02 at (6,26,3)
       Mesh    5
       Max CFL number:  0.50E-02 at (17,28,18)
       Max divergence:  0.61E-05 at (1,11,18)
       Min divergence: -0.24E-05 at (17,28,19)
       Max VN number:   0.48E-02 at (17,29,18)
       Radiation Loss to Boundaries:         0.002 kW
       Mesh    6
       Max CFL number:  0.51E-01 at (9,17,16)
       Max divergence:  0.13E-03 at (6,21,15)
       Min divergence: -0.19E-04 at (8,16,16)
       Max VN number:   0.54E-01 at (9,19,1)
       Radiation Loss to Boundaries:         0.071 kW
       Mesh    7
       Max CFL number:  0.32E+00 at (5,18,22)
       Max divergence:  0.18E+00 at (12,1,15)
       Min divergence: -0.21E+00 at (10,6,22)
       Max VN number:   0.30E+00 at (12,1,14)
       Radiation Loss to Boundaries:         0.553 kW
       Mesh    8
       Max CFL number:  0.95E+00 at (17,15,18)
       Max divergence:  0.11E+02 at (16,15,3)
       Min divergence: -0.46E+01 at (18,15,14)
       Max VN number:   0.37E+00 at (16,24,22)
       Total Heat Release Rate:            165.876 kW
       Radiation Loss to Boundaries:       -21.313 kW
 
       Time Step     400   November 22, 2022  12:27:08
       Step Size:    0.960E-02 s, Total Time:       4.75 s
       Pressure Iterations: 1
       Maximum Velocity Error:  0.28E-01 on Mesh 1 at (26,0,22)
       Maximum Pressure Error:  0.45E+03 on Mesh 8 at (15,14,16)
       ---------------------------------------------------------------
       Mesh    1
       Max CFL number:  0.27E+00 at (27,1,22)
       Max divergence:  0.17E+00 at (9,5,21)
       Min divergence: -0.16E+00 at (9,5,22)
       Max VN number:   0.27E+00 at (13,16,22)
       Radiation Loss to Boundaries:         0.100 kW
       Mesh    2
       Max CFL number:  0.25E+00 at (1,1,22)
       Max divergence:  0.13E+00 at (2,4,21)
       Min divergence: -0.17E+00 at (3,4,22)
       Max VN number:   0.16E+00 at (17,8,22)
       Radiation Loss to Boundaries:         0.115 kW
       Mesh    3
       Max CFL number:  0.56E-01 at (20,24,18)
       Max divergence:  0.54E-04 at (6,5,16)
       Min divergence: -0.22E-04 at (19,24,18)
       Max VN number:   0.56E-01 at (20,25,10)
       Radiation Loss to Boundaries:         0.020 kW
       Mesh    4
       Max CFL number:  0.31E-02 at (1,30,4)
       Max divergence:  0.19E-05 at (23,30,2)
       Min divergence: -0.18E-05 at (23,18,21)
       Max VN number:   0.26E-02 at (4,26,20)
       Mesh    5
       Max CFL number:  0.63E-02 at (10,30,18)
       Max divergence:  0.50E-05 at (1,11,17)
       Min divergence: -0.23E-05 at (10,30,18)
       Max VN number:   0.46E-02 at (9,28,15)
       Radiation Loss to Boundaries:         0.002 kW
       Mesh    6
       Max CFL number:  0.19E+00 at (3,1,20)
       Max divergence:  0.28E-01 at (1,21,22)
       Min divergence: -0.55E-01 at (3,1,20)
       Max VN number:   0.10E+00 at (7,18,18)
       Radiation Loss to Boundaries:         0.060 kW
       Mesh    7
       Max CFL number:  0.32E+00 at (7,26,22)
       Max divergence:  0.23E+00 at (10,21,21)
       Min divergence: -0.27E+00 at (10,21,22)
       Max VN number:   0.30E+00 at (9,21,22)
       Radiation Loss to Boundaries:         0.261 kW
       Mesh    8
       Max CFL number:  0.88E+00 at (16,15,18)
       Max divergence:  0.98E+01 at (16,13,3)
       Min divergence: -0.32E+01 at (15,14,10)
       Max VN number:   0.35E+00 at (5,1,14)
       Total Heat Release Rate:            154.822 kW
       Radiation Loss to Boundaries:       -19.119 kW
 
       Time Step     500   November 22, 2022  12:27:20
       Step Size:    0.100E-01 s, Total Time:       5.89 s
       Pressure Iterations: 2
       Maximum Velocity Error:  0.15E-01 on Mesh 7 at (0,11,22)
       Maximum Pressure Error:  0.27E+03 on Mesh 8 at (15,15,10)
       ---------------------------------------------------------------
       Mesh    1
       Max CFL number:  0.29E+00 at (9,7,22)
       Max divergence:  0.22E+00 at (2,9,16)
       Min divergence: -0.20E+00 at (2,7,17)
       Max VN number:   0.25E+00 at (2,18,17)
       Radiation Loss to Boundaries:        -0.039 kW
       Mesh    2
       Max CFL number:  0.27E+00 at (2,2,22)
       Max divergence:  0.11E+00 at (1,4,21)
       Min divergence: -0.15E+00 at (1,4,22)
       Max VN number:   0.21E+00 at (3,1,22)
       Radiation Loss to Boundaries:         0.011 kW
       Mesh    3
       Max CFL number:  0.20E+00 at (1,6,22)
       Max divergence:  0.42E-01 at (5,1,22)
       Min divergence: -0.41E-01 at (1,7,22)
       Max VN number:   0.56E-01 at (1,2,22)
       Radiation Loss to Boundaries:         0.018 kW
       Mesh    4
       Max CFL number:  0.25E-02 at (1,27,11)
       Max divergence:  0.17E-05 at (23,30,2)
       Min divergence: -0.16E-05 at (23,18,21)
       Max VN number:   0.27E-02 at (6,26,3)
       Mesh    5
       Max CFL number:  0.60E-02 at (1,19,17)
       Max divergence:  0.51E-05 at (2,18,17)
       Min divergence: -0.22E-05 at (17,28,19)
       Max VN number:   0.50E-02 at (1,18,1)
       Radiation Loss to Boundaries:         0.002 kW
       Mesh    6
       Max CFL number:  0.22E+00 at (1,2,18)
       Max divergence:  0.87E-01 at (4,4,21)
       Min divergence: -0.70E-01 at (4,4,20)
       Max VN number:   0.16E+00 at (4,1,19)
       Radiation Loss to Boundaries:        -0.032 kW
       Mesh    7
       Max CFL number:  0.34E+00 at (1,9,22)
       Max divergence:  0.17E+00 at (1,2,21)
       Min divergence: -0.23E+00 at (2,9,22)
       Max VN number:   0.27E+00 at (27,1,17)
       Radiation Loss to Boundaries:         0.243 kW
       Mesh    8
       Max CFL number:  0.91E+00 at (16,15,7)
       Max divergence:  0.12E+02 at (17,15,3)
       Min divergence: -0.36E+01 at (18,14,12)
       Max VN number:   0.38E+00 at (15,9,22)
       Total Heat Release Rate:            164.440 kW
       Radiation Loss to Boundaries:       -19.109 kW
 
       Time Step     600   November 22, 2022  12:27:32
       Step Size:    0.954E-02 s, Total Time:       6.86 s
       Pressure Iterations: 2
       Maximum Velocity Error:  0.13E-01 on Mesh 8 at (12,32,22)
       Maximum Pressure Error:  0.31E+03 on Mesh 8 at (15,12,19)
       ---------------------------------------------------------------
       Mesh    1
       Max CFL number:  0.29E+00 at (11,5,22)
       Max divergence:  0.15E+00 at (4,4,21)
       Min divergence: -0.24E+00 at (2,8,16)
       Max VN number:   0.19E+00 at (2,23,16)
       Radiation Loss to Boundaries:        -0.140 kW
       Mesh    2
       Max CFL number:  0.19E+00 at (26,18,22)
       Max divergence:  0.86E-01 at (2,5,21)
       Min divergence: -0.82E-01 at (2,4,22)
       Max VN number:   0.18E+00 at (13,3,22)
       Radiation Loss to Boundaries:         0.042 kW
       Mesh    3
       Max CFL number:  0.18E+00 at (4,7,22)
       Max divergence:  0.29E-01 at (6,15,22)
       Min divergence: -0.45E-01 at (5,15,22)
       Max VN number:   0.11E+00 at (1,10,22)
       Radiation Loss to Boundaries:        -0.003 kW
       Mesh    4
       Max CFL number:  0.43E-02 at (1,27,9)
       Max divergence:  0.17E-05 at (7,18,2)
       Min divergence: -0.16E-05 at (1,27,19)
       Max VN number:   0.22E-02 at (26,24,4)
       Mesh    5
       Max CFL number:  0.11E-01 at (10,28,18)
       Max divergence:  0.55E-05 at (1,18,17)
       Min divergence: -0.43E-05 at (12,28,18)
       Max VN number:   0.13E-01 at (17,29,18)
       Radiation Loss to Boundaries:         0.002 kW
       Mesh    6
       Max CFL number:  0.18E+00 at (1,24,22)
       Max divergence:  0.71E-01 at (4,1,18)
       Min divergence: -0.45E-01 at (6,15,14)
       Max VN number:   0.21E+00 at (3,1,16)
       Radiation Loss to Boundaries:        -0.101 kW
       Mesh    7
       Max CFL number:  0.40E+00 at (5,11,22)
       Max divergence:  0.30E+00 at (11,1,16)
       Min divergence: -0.28E+00 at (6,12,22)
       Max VN number:   0.33E+00 at (5,12,22)
       Total Heat Release Rate:              0.002 kW
       Radiation Loss to Boundaries:         0.089 kW
       Mesh    8
       Max CFL number:  0.90E+00 at (15,12,18)
       Max divergence:  0.95E+01 at (15,13,3)
       Min divergence: -0.32E+01 at (14,14,12)
       Max VN number:   0.30E+00 at (15,18,22)
       Total Heat Release Rate:            166.178 kW
       Radiation Loss to Boundaries:       -21.069 kW
 
       Time Step     700   November 22, 2022  12:27:44
       Step Size:    0.103E-01 s, Total Time:       7.89 s
       Pressure Iterations: 1
       Maximum Velocity Error:  0.34E-01 on Mesh 7 at (0,6,22)
       Maximum Pressure Error:  0.35E+03 on Mesh 8 at (15,14,12)
       ---------------------------------------------------------------
       Mesh    1
       Max CFL number:  0.31E+00 at (15,7,22)
       Max divergence:  0.17E+00 at (2,15,19)
       Min divergence: -0.15E+00 at (2,11,17)
       Max VN number:   0.33E+00 at (2,10,17)
       Radiation Loss to Boundaries:        -0.367 kW
       Mesh    2
       Max CFL number:  0.32E+00 at (8,12,22)
       Max divergence:  0.89E-01 at (6,14,21)
       Min divergence: -0.12E+00 at (6,14,22)
       Max VN number:   0.17E+00 at (17,6,22)
       Radiation Loss to Boundaries:         0.003 kW
       Mesh    3
       Max CFL number:  0.24E+00 at (1,1,22)
       Max divergence:  0.42E-01 at (5,1,22)
       Min divergence: -0.50E-01 at (2,1,22)
       Max VN number:   0.10E+00 at (13,25,18)
       Radiation Loss to Boundaries:        -0.036 kW
       Mesh    4
       Max CFL number:  0.35E-02 at (10,2,8)
       Max divergence:  0.16E-05 at (7,18,2)
       Min divergence: -0.19E-05 at (13,1,21)
       Max VN number:   0.25E-02 at (26,24,4)
       Mesh    5
       Max CFL number:  0.15E-01 at (10,30,18)
       Max divergence:  0.51E-05 at (1,18,14)
       Min divergence: -0.50E-05 at (11,30,18)
       Max VN number:   0.20E-01 at (10,29,18)
       Radiation Loss to Boundaries:         0.003 kW
       Mesh    6
       Max CFL number:  0.25E+00 at (1,14,22)
       Max divergence:  0.77E-01 at (2,29,21)
       Min divergence: -0.10E+00 at (2,28,22)
       Max VN number:   0.23E+00 at (2,32,22)
       Radiation Loss to Boundaries:        -0.198 kW
       Mesh    7
       Max CFL number:  0.40E+00 at (2,5,22)
       Max divergence:  0.21E+00 at (4,5,21)
       Min divergence: -0.32E+00 at (1,3,22)
       Max VN number:   0.27E+00 at (3,11,22)
       Radiation Loss to Boundaries:        -0.189 kW
       Mesh    8
       Max CFL number:  0.86E+00 at (15,14,11)
       Max divergence:  0.94E+01 at (15,16,3)
       Min divergence: -0.37E+01 at (15,15,9)
       Max VN number:   0.50E+00 at (4,24,22)
       Total Heat Release Rate:            160.495 kW
       Radiation Loss to Boundaries:       -22.696 kW
 
       Time Step     800   November 22, 2022  12:27:56
       Step Size:    0.938E-02 s, Total Time:       8.91 s
       Pressure Iterations: 1
       Maximum Velocity Error:  0.41E-01 on Mesh 1 at (13,11,22)
       Maximum Pressure Error:  0.39E+03 on Mesh 8 at (15,16,14)
       ---------------------------------------------------------------
       Mesh    1
       Max CFL number:  0.32E+00 at (26,1,22)
       Max divergence:  0.14E+00 at (3,15,17)
       Min divergence: -0.18E+00 at (21,10,22)
       Max VN number:   0.25E+00 at (17,23,22)
       Radiation Loss to Boundaries:        -0.503 kW
       Mesh    2
       Max CFL number:  0.32E+00 at (4,1,22)
       Max divergence:  0.81E-01 at (2,1,21)
       Min divergence: -0.12E+00 at (2,1,22)
       Max VN number:   0.15E+00 at (3,20,22)
       Radiation Loss to Boundaries:        -0.086 kW
       Mesh    3
       Max CFL number:  0.17E+00 at (6,2,18)
       Max divergence:  0.36E-01 at (3,8,21)
       Min divergence: -0.57E-01 at (6,11,18)
       Max VN number:   0.19E+00 at (3,8,22)
       Radiation Loss to Boundaries:        -0.078 kW
       Mesh    4
       Max CFL number:  0.40E-02 at (2,27,2)
       Max divergence:  0.16E-05 at (7,18,2)
       Min divergence: -0.13E-05 at (6,20,21)
       Max VN number:   0.22E-02 at (15,13,1)
       Mesh    5
       Max CFL number:  0.80E-02 at (10,28,18)
       Max divergence:  0.52E-05 at (1,17,18)
       Min divergence: -0.33E-05 at (17,28,18)
       Max VN number:   0.41E-02 at (1,18,1)
       Radiation Loss to Boundaries:         0.003 kW
       Mesh    6
       Max CFL number:  0.21E+00 at (1,1,21)
       Max divergence:  0.79E-01 at (5,18,17)
       Min divergence: -0.12E+00 at (1,2,21)
       Max VN number:   0.18E+00 at (5,4,22)
       Radiation Loss to Boundaries:        -0.292 kW
       Mesh    7
       Max CFL number:  0.36E+00 at (10,4,22)
       Max divergence:  0.18E+00 at (3,1,15)
       Min divergence: -0.30E+00 at (9,1,17)
       Max VN number:   0.25E+00 at (11,6,22)
       Radiation Loss to Boundaries:        -0.198 kW
       Mesh    8
       Max CFL number:  0.88E+00 at (15,15,12)
       Max divergence:  0.97E+01 at (14,13,3)
       Min divergence: -0.38E+01 at (16,13,16)
       Max VN number:   0.43E+00 at (3,11,22)
       Total Heat Release Rate:            154.209 kW
       Radiation Loss to Boundaries:       -19.444 kW
 
       Time Step     900   November 22, 2022  12:28:08
       Step Size:    0.103E-01 s, Total Time:       9.91 s
       Pressure Iterations: 1
       Maximum Velocity Error:  0.33E-01 on Mesh 1 at (5,14,22)
       Maximum Pressure Error:  0.50E+03 on Mesh 8 at (15,15,10)
       ---------------------------------------------------------------
       Mesh    1
       Max CFL number:  0.34E+00 at (5,13,22)
       Max divergence:  0.15E+00 at (2,7,16)
       Min divergence: -0.17E+00 at (2,2,16)
       Max VN number:   0.26E+00 at (2,8,16)
       Radiation Loss to Boundaries:        -0.514 kW
       Mesh    2
       Max CFL number:  0.27E+00 at (1,3,22)
       Max divergence:  0.95E-01 at (9,13,21)
       Min divergence: -0.93E-01 at (18,5,22)
       Max VN number:   0.24E+00 at (18,4,22)
       Radiation Loss to Boundaries:        -0.314 kW
       Mesh    3
       Max CFL number:  0.19E+00 at (1,2,22)
       Max divergence:  0.47E-01 at (1,2,21)
       Min divergence: -0.45E-01 at (1,2,22)
       Max VN number:   0.19E+00 at (4,22,22)
       Radiation Loss to Boundaries:        -0.126 kW
       Mesh    4
       Max CFL number:  0.32E-02 at (2,27,2)
       Max divergence:  0.15E-05 at (7,18,2)
       Min divergence: -0.13E-05 at (6,20,21)
       Max VN number:   0.25E-02 at (15,13,1)
       Mesh    5
       Max CFL number:  0.12E-01 at (1,18,18)
       Max divergence:  0.50E-05 at (1,18,18)
       Min divergence: -0.32E-05 at (12,28,18)
       Max VN number:   0.34E-02 at (1,18,18)
       Radiation Loss to Boundaries:         0.003 kW
       Mesh    6
       Max CFL number:  0.21E+00 at (1,7,21)
       Max divergence:  0.10E+00 at (8,15,20)
       Min divergence: -0.72E-01 at (9,14,16)
       Max VN number:   0.28E+00 at (7,18,18)
       Radiation Loss to Boundaries:        -0.379 kW
       Mesh    7
       Max CFL number:  0.37E+00 at (6,24,22)
       Max divergence:  0.22E+00 at (13,9,21)
       Min divergence: -0.21E+00 at (13,10,22)
       Max VN number:   0.30E+00 at (21,1,18)
       Radiation Loss to Boundaries:        -0.151 kW
       Mesh    8
       Max CFL number:  0.86E+00 at (15,14,13)
       Max divergence:  0.98E+01 at (14,15,3)
       Min divergence: -0.30E+01 at (14,15,11)
       Max VN number:   0.41E+00 at (17,15,22)
       Total Heat Release Rate:            164.257 kW
       Radiation Loss to Boundaries:       -21.242 kW
 
       Time Step    1000   November 22, 2022  12:28:21
       Step Size:    0.109E-01 s, Total Time:      10.94 s
       Pressure Iterations: 2
       Maximum Velocity Error:  0.19E-01 on Mesh 7 at (0,3,22)
       Maximum Pressure Error:  0.29E+03 on Mesh 8 at (12,15,22)
       ---------------------------------------------------------------
       Mesh    1
       Max CFL number:  0.40E+00 at (11,1,22)
       Max divergence:  0.24E+00 at (2,8,17)
       Min divergence: -0.39E+00 at (2,4,16)
       Max VN number:   0.35E+00 at (2,3,17)
       Radiation Loss to Boundaries:        -0.590 kW
       Mesh    2
       Max CFL number:  0.30E+00 at (10,6,22)
       Max divergence:  0.98E-01 at (2,24,15)
       Min divergence: -0.66E-01 at (1,22,15)
       Max VN number:   0.18E+00 at (4,14,22)
       Radiation Loss to Boundaries:        -0.559 kW
       Mesh    3
       Max CFL number:  0.20E+00 at (5,1,22)
       Max divergence:  0.27E-01 at (2,24,9)
       Min divergence: -0.49E-01 at (6,7,14)
       Max VN number:   0.13E+00 at (2,18,22)
       Radiation Loss to Boundaries:        -0.197 kW
       Mesh    4
       Max CFL number:  0.25E-02 at (10,2,8)
       Max divergence:  0.15E-05 at (7,18,2)
       Min divergence: -0.15E-05 at (5,10,21)
       Max VN number:   0.25E-02 at (26,24,4)
       Mesh    5
       Max CFL number:  0.90E-02 at (10,30,18)
       Max divergence:  0.55E-05 at (2,18,18)
       Min divergence: -0.42E-05 at (11,30,18)
       Max VN number:   0.71E-02 at (9,28,4)
       Radiation Loss to Boundaries:         0.004 kW
       Mesh    6
       Max CFL number:  0.31E+00 at (3,8,22)
       Max divergence:  0.11E+00 at (5,16,18)
       Min divergence: -0.25E+00 at (6,11,14)
       Max VN number:   0.25E+00 at (2,1,20)
       Radiation Loss to Boundaries:        -0.388 kW
       Mesh    7
       Max CFL number:  0.37E+00 at (1,17,22)
       Max divergence:  0.21E+00 at (1,5,21)
       Min divergence: -0.27E+00 at (1,5,22)
       Max VN number:   0.29E+00 at (1,5,22)
       Radiation Loss to Boundaries:        -0.138 kW
       Mesh    8
       Max CFL number:  0.87E+00 at (12,15,20)
       Max divergence:  0.12E+02 at (17,15,3)
       Min divergence: -0.24E+01 at (16,15,9)
       Max VN number:   0.55E+00 at (27,5,22)
       Total Heat Release Rate:            177.567 kW
       Radiation Loss to Boundaries:       -25.250 kW
 
[...]
       Max divergence:  0.95E+01 at (14,15,3)
       Min divergence: -0.22E+01 at (14,15,12)
       Max VN number:   0.34E+00 at (11,17,22)
       Total Heat Release Rate:            148.733 kW
       Radiation Loss to Boundaries:       -27.192 kW
 
       Time Step   25600   November 22, 2022  13:18:47
       Step Size:    0.115E-01 s, Total Time:     292.13 s
       Pressure Iterations: 2
       Maximum Velocity Error:  0.21E-01 on Mesh 7 at (0,14,22)
       Maximum Pressure Error:  0.30E+03 on Mesh 8 at (15,14,13)
       ---------------------------------------------------------------
       Mesh    1
       Max CFL number:  0.32E+00 at (17,1,22)
       Max divergence:  0.97E-01 at (3,8,14)
       Min divergence: -0.17E+00 at (2,8,14)
       Max VN number:   0.23E+00 at (15,1,22)
       Radiation Loss to Boundaries:        -7.964 kW
       Mesh    2
       Max CFL number:  0.25E+00 at (7,12,22)
       Max divergence:  0.36E-01 at (2,19,15)
       Min divergence: -0.62E-01 at (10,24,11)
       Max VN number:   0.21E+00 at (6,13,22)
       Radiation Loss to Boundaries:        -8.049 kW
       Mesh    3
       Max CFL number:  0.32E+00 at (19,24,18)
       Max divergence:  0.19E+00 at (20,28,18)
       Min divergence: -0.20E+00 at (14,26,21)
       Max VN number:   0.39E+00 at (18,25,18)
       Radiation Loss to Boundaries:        -5.252 kW
       Mesh    4
       Max CFL number:  0.11E+00 at (13,1,19)
       Max divergence:  0.23E-01 at (10,3,19)
       Min divergence: -0.31E-01 at (9,2,18)
       Max VN number:   0.64E-01 at (3,24,10)
       Radiation Loss to Boundaries:        -1.418 kW
       Mesh    5
       Max CFL number:  0.16E+00 at (2,12,18)
       Max divergence:  0.74E-01 at (2,14,14)
       Min divergence: -0.94E-01 at (1,16,13)
       Max VN number:   0.16E+00 at (11,29,18)
       Radiation Loss to Boundaries:        -2.974 kW
       Mesh    6
       Max CFL number:  0.31E+00 at (6,12,17)
       Max divergence:  0.13E+00 at (7,11,10)
       Min divergence: -0.15E+00 at (6,11,11)
       Max VN number:   0.34E+00 at (7,15,18)
       Radiation Loss to Boundaries:        -7.267 kW
       Mesh    7
       Max CFL number:  0.35E+00 at (1,15,22)
       Max divergence:  0.69E-01 at (3,14,21)
       Min divergence: -0.17E+00 at (3,14,22)
       Max VN number:   0.22E+00 at (23,1,14)
       Radiation Loss to Boundaries:        -9.635 kW
       Mesh    8
       Max CFL number:  0.92E+00 at (15,14,13)
       Max divergence:  0.11E+02 at (14,15,3)
       Min divergence: -0.25E+01 at (15,15,10)
       Max VN number:   0.43E+00 at (3,25,22)
       Total Heat Release Rate:            165.571 kW
       Radiation Loss to Boundaries:       -36.546 kW
 
       Time Step   25700   November 22, 2022  13:18:59
       Step Size:    0.123E-01 s, Total Time:     293.31 s
       Pressure Iterations: 1
       Maximum Velocity Error:  0.48E-01 on Mesh 1 at (14,2,22)
       Maximum Pressure Error:  0.37E+03 on Mesh 8 at (15,16,9)
       ---------------------------------------------------------------
       Mesh    1
       Max CFL number:  0.42E+00 at (14,1,22)
       Max divergence:  0.15E+00 at (6,23,8)
       Min divergence: -0.19E+00 at (6,24,8)
       Max VN number:   0.28E+00 at (26,14,22)
       Radiation Loss to Boundaries:        -8.006 kW
       Mesh    2
       Max CFL number:  0.28E+00 at (1,13,22)
       Max divergence:  0.71E-01 at (3,22,12)
       Min divergence: -0.75E-01 at (26,24,8)
       Max VN number:   0.20E+00 at (5,9,22)
       Radiation Loss to Boundaries:        -8.035 kW
       Mesh    3
       Max CFL number:  0.33E+00 at (14,31,21)
       Max divergence:  0.21E+00 at (18,29,17)
       Min divergence: -0.19E+00 at (13,26,18)
       Max VN number:   0.47E+00 at (20,25,18)
       Radiation Loss to Boundaries:        -5.094 kW
       Mesh    4
       Max CFL number:  0.14E+00 at (11,2,19)
       Max divergence:  0.14E-01 at (12,4,19)
       Min divergence: -0.25E-01 at (10,5,19)
       Max VN number:   0.68E-01 at (8,24,12)
       Radiation Loss to Boundaries:        -1.416 kW
       Mesh    5
       Max CFL number:  0.16E+00 at (4,15,17)
       Max divergence:  0.61E-01 at (3,17,15)
       Min divergence: -0.64E-01 at (6,14,17)
       Max VN number:   0.17E+00 at (15,29,18)
       Radiation Loss to Boundaries:        -2.990 kW
       Mesh    6
       Max CFL number:  0.31E+00 at (6,13,17)
       Max divergence:  0.20E+00 at (9,19,12)
       Min divergence: -0.17E+00 at (6,13,12)
       Max VN number:   0.36E+00 at (7,15,18)
       Radiation Loss to Boundaries:        -7.268 kW
       Mesh    7
       Max CFL number:  0.39E+00 at (4,3,22)
       Max divergence:  0.72E-01 at (11,1,16)
       Min divergence: -0.12E+00 at (1,1,14)
       Max VN number:   0.37E+00 at (5,4,22)
       Radiation Loss to Boundaries:        -9.878 kW
       Mesh    8
       Max CFL number:  0.87E+00 at (12,15,17)
       Max divergence:  0.11E+02 at (14,15,3)
       Min divergence: -0.24E+01 at (15,15,3)
       Max VN number:   0.30E+00 at (9,1,15)
       Total Heat Release Rate:            158.365 kW
       Radiation Loss to Boundaries:       -29.162 kW
 
       Time Step   25800   November 22, 2022  13:19:11
       Step Size:    0.125E-01 s, Total Time:     294.49 s
       Pressure Iterations: 2
       Maximum Velocity Error:  0.10E-01 on Mesh 7 at (0,13,22)
       Maximum Pressure Error:  0.37E+03 on Mesh 8 at (14,15,3)
       ---------------------------------------------------------------
       Mesh    1
       Max CFL number:  0.35E+00 at (2,5,15)
       Max divergence:  0.11E+00 at (3,4,14)
       Min divergence: -0.14E+00 at (2,2,14)
       Max VN number:   0.24E+00 at (11,3,22)
       Radiation Loss to Boundaries:        -7.881 kW
       Mesh    2
       Max CFL number:  0.28E+00 at (14,1,22)
       Max divergence:  0.49E-01 at (27,24,8)
       Min divergence: -0.64E-01 at (4,7,22)
       Max VN number:   0.18E+00 at (19,12,22)
       Radiation Loss to Boundaries:        -8.083 kW
       Mesh    3
       Max CFL number:  0.35E+00 at (19,24,18)
       Max divergence:  0.16E+00 at (15,28,20)
       Min divergence: -0.31E+00 at (19,26,19)
       Max VN number:   0.45E+00 at (19,25,18)
       Radiation Loss to Boundaries:        -5.157 kW
       Mesh    4
       Max CFL number:  0.12E+00 at (11,1,18)
       Max divergence:  0.18E-01 at (17,2,17)
       Min divergence: -0.23E-01 at (15,2,17)
       Max VN number:   0.83E-01 at (5,24,12)
       Radiation Loss to Boundaries:        -1.417 kW
       Mesh    5
       Max CFL number:  0.25E+00 at (1,17,18)
       Max divergence:  0.83E-01 at (7,17,17)
       Min divergence: -0.12E+00 at (2,18,18)
       Max VN number:   0.16E+00 at (16,29,18)
       Radiation Loss to Boundaries:        -3.004 kW
       Mesh    6
       Max CFL number:  0.30E+00 at (6,12,17)
       Max divergence:  0.18E+00 at (16,15,16)
       Min divergence: -0.16E+00 at (25,20,11)
       Max VN number:   0.36E+00 at (7,14,18)
       Radiation Loss to Boundaries:        -7.356 kW
       Mesh    7
       Max CFL number:  0.43E+00 at (1,23,22)
       Max divergence:  0.11E+00 at (2,22,21)
       Min divergence: -0.22E+00 at (1,21,22)
       Max VN number:   0.26E+00 at (9,7,22)
       Radiation Loss to Boundaries:        -9.895 kW
       Mesh    8
       Max CFL number:  0.10E+01 at (13,14,19)
       Max divergence:  0.10E+02 at (15,14,4)
       Min divergence: -0.28E+01 at (14,15,11)
       Max VN number:   0.72E+00 at (6,14,22)
       Total Heat Release Rate:            137.621 kW
       Radiation Loss to Boundaries:       -26.094 kW
 
       Time Step   25900   November 22, 2022  13:19:24
       Step Size:    0.127E-01 s, Total Time:     295.67 s
       Pressure Iterations: 2
       Maximum Velocity Error:  0.35E-01 on Mesh 7 at (0,26,22)
       Maximum Pressure Error:  0.21E+03 on Mesh 8 at (16,14,5)
       ---------------------------------------------------------------
       Mesh    1
       Max CFL number:  0.30E+00 at (6,5,22)
       Max divergence:  0.10E+00 at (3,1,14)
       Min divergence: -0.12E+00 at (2,1,15)
       Max VN number:   0.19E+00 at (18,21,22)
       Radiation Loss to Boundaries:        -7.885 kW
       Mesh    2
       Max CFL number:  0.28E+00 at (16,2,22)
       Max divergence:  0.47E-01 at (1,21,13)
       Min divergence: -0.72E-01 at (18,1,22)
       Max VN number:   0.18E+00 at (9,21,22)
       Radiation Loss to Boundaries:        -8.031 kW
       Mesh    3
       Max CFL number:  0.36E+00 at (16,31,21)
       Max divergence:  0.15E+00 at (17,31,17)
       Min divergence: -0.17E+00 at (12,28,21)
       Max VN number:   0.38E+00 at (17,25,18)
       Radiation Loss to Boundaries:        -5.331 kW
       Mesh    4
       Max CFL number:  0.13E+00 at (16,3,20)
       Max divergence:  0.20E-01 at (15,5,20)
       Min divergence: -0.20E-01 at (10,1,16)
       Max VN number:   0.63E-01 at (11,23,22)
       Radiation Loss to Boundaries:        -1.421 kW
       Mesh    5
       Max CFL number:  0.22E+00 at (11,18,21)
       Max divergence:  0.10E+00 at (1,14,17)
       Min divergence: -0.81E-01 at (1,15,16)
       Max VN number:   0.15E+00 at (16,29,18)
       Radiation Loss to Boundaries:        -2.999 kW
       Mesh    6
       Max CFL number:  0.34E+00 at (6,11,17)
       Max divergence:  0.20E+00 at (20,15,17)
       Min divergence: -0.22E+00 at (20,16,17)
       Max VN number:   0.34E+00 at (7,17,18)
       Radiation Loss to Boundaries:        -7.269 kW
       Mesh    7
       Max CFL number:  0.49E+00 at (1,25,22)
       Max divergence:  0.78E-01 at (1,16,21)
       Min divergence: -0.21E+00 at (1,16,22)
       Max VN number:   0.39E+00 at (1,24,22)
       Radiation Loss to Boundaries:       -10.089 kW
       Mesh    8
       Max CFL number:  0.98E+00 at (14,17,22)
       Max divergence:  0.11E+02 at (15,13,3)
       Min divergence: -0.19E+01 at (14,15,9)
       Max VN number:   0.44E+00 at (2,2,18)
       Total Heat Release Rate:            177.312 kW
       Radiation Loss to Boundaries:       -33.242 kW
 
       Time Step   26000   November 22, 2022  13:19:36
       Step Size:    0.103E-01 s, Total Time:     296.86 s
       Pressure Iterations: 1
       Maximum Velocity Error:  0.30E-01 on Mesh 8 at (16,16,2)
       Maximum Pressure Error:  0.25E+03 on Mesh 8 at (11,16,19)
       ---------------------------------------------------------------
       Mesh    1
       Max CFL number:  0.31E+00 at (10,10,22)
       Max divergence:  0.77E-01 at (2,11,13)
       Min divergence: -0.13E+00 at (2,12,15)
       Max VN number:   0.22E+00 at (2,11,13)
       Radiation Loss to Boundaries:        -7.712 kW
       Mesh    2
       Max CFL number:  0.28E+00 at (2,4,22)
       Max divergence:  0.75E-01 at (4,6,21)
       Min divergence: -0.73E-01 at (3,6,22)
       Max VN number:   0.14E+00 at (6,6,22)
       Radiation Loss to Boundaries:        -7.995 kW
       Mesh    3
       Max CFL number:  0.32E+00 at (20,24,18)
       Max divergence:  0.22E+00 at (20,29,21)
       Min divergence: -0.16E+00 at (19,28,18)
       Max VN number:   0.35E+00 at (18,25,18)
       Radiation Loss to Boundaries:        -5.430 kW
       Mesh    4
       Max CFL number:  0.11E+00 at (10,2,19)
       Max divergence:  0.16E-01 at (13,2,17)
       Min divergence: -0.19E-01 at (16,1,19)
       Max VN number:   0.75E-01 at (24,24,13)
       Radiation Loss to Boundaries:        -1.428 kW
       Mesh    5
       Max CFL number:  0.19E+00 at (3,17,18)
       Max divergence:  0.17E+00 at (3,16,17)
       Min divergence: -0.12E+00 at (4,17,18)
       Max VN number:   0.15E+00 at (10,29,18)
       Radiation Loss to Boundaries:        -3.006 kW
       Mesh    6
       Max CFL number:  0.25E+00 at (18,17,21)
       Max divergence:  0.16E+00 at (11,15,14)
       Min divergence: -0.19E+00 at (11,12,14)
       Max VN number:   0.32E+00 at (7,14,18)
       Radiation Loss to Boundaries:        -7.310 kW
       Mesh    7
       Max CFL number:  0.28E+00 at (6,3,22)
       Max divergence:  0.59E-01 at (9,1,15)
       Min divergence: -0.76E-01 at (7,14,22)
       Max VN number:   0.22E+00 at (5,2,22)
       Radiation Loss to Boundaries:        -9.340 kW
       Mesh    8
       Max CFL number:  0.81E+00 at (13,16,16)
       Max divergence:  0.11E+02 at (16,16,3)
       Min divergence: -0.31E+01 at (15,15,3)
       Max VN number:   0.35E+00 at (7,21,22)
       Total Heat Release Rate:            150.336 kW
       Radiation Loss to Boundaries:       -29.518 kW
 
       Time Step   26100   November 22, 2022  13:19:48
       Step Size:    0.121E-01 s, Total Time:     298.06 s
       Pressure Iterations: 1
       Maximum Velocity Error:  0.40E-01 on Mesh 7 at (0,14,22)
       Maximum Pressure Error:  0.30E+03 on Mesh 8 at (15,14,10)
       ---------------------------------------------------------------
       Mesh    1
       Max CFL number:  0.40E+00 at (16,7,22)
       Max divergence:  0.13E+00 at (3,12,15)
       Min divergence: -0.15E+00 at (2,12,15)
       Max VN number:   0.32E+00 at (17,6,22)
       Radiation Loss to Boundaries:        -8.038 kW
       Mesh    2
       Max CFL number:  0.24E+00 at (11,16,22)
       Max divergence:  0.58E-01 at (27,22,8)
       Min divergence: -0.64E-01 at (5,24,13)
       Max VN number:   0.23E+00 at (6,5,22)
       Radiation Loss to Boundaries:        -8.077 kW
       Mesh    3
       Max CFL number:  0.34E+00 at (15,32,21)
       Max divergence:  0.16E+00 at (12,26,18)
       Min divergence: -0.20E+00 at (19,26,18)
       Max VN number:   0.42E+00 at (19,25,18)
       Radiation Loss to Boundaries:        -5.427 kW
       Mesh    4
       Max CFL number:  0.14E+00 at (12,1,19)
       Max divergence:  0.22E-01 at (12,3,19)
       Min divergence: -0.24E-01 at (12,1,19)
       Max VN number:   0.10E+00 at (4,24,15)
       Radiation Loss to Boundaries:        -1.431 kW
       Mesh    5
       Max CFL number:  0.17E+00 at (9,18,20)
       Max divergence:  0.74E-01 at (2,12,16)
       Min divergence: -0.88E-01 at (2,18,16)
       Max VN number:   0.14E+00 at (13,29,18)
       Radiation Loss to Boundaries:        -3.025 kW
       Mesh    6
       Max CFL number:  0.31E+00 at (6,11,17)
       Max divergence:  0.14E+00 at (11,19,14)
       Min divergence: -0.13E+00 at (10,12,15)
       Max VN number:   0.35E+00 at (7,17,18)
       Radiation Loss to Boundaries:        -7.156 kW
       Mesh    7
       Max CFL number:  0.36E+00 at (1,13,22)
       Max divergence:  0.11E+00 at (1,12,21)
       Min divergence: -0.21E+00 at (2,13,22)
       Max VN number:   0.32E+00 at (7,3,22)
       Radiation Loss to Boundaries:        -9.245 kW
       Mesh    8
       Max CFL number:  0.93E+00 at (12,15,16)
       Max divergence:  0.12E+02 at (14,15,3)
       Min divergence: -0.34E+01 at (14,14,12)
       Max VN number:   0.62E+00 at (12,18,22)
       Total Heat Release Rate:            152.372 kW
       Radiation Loss to Boundaries:       -28.646 kW
 
       Time Step   26200   November 22, 2022  13:20:00
       Step Size:    0.125E-01 s, Total Time:     299.24 s
       Pressure Iterations: 2
       Maximum Velocity Error:  0.31E-01 on Mesh 7 at (0,13,22)
       Maximum Pressure Error:  0.27E+03 on Mesh 8 at (15,17,5)
       ---------------------------------------------------------------
       Mesh    1
       Max CFL number:  0.32E+00 at (15,14,22)
       Max divergence:  0.83E-01 at (3,5,17)
       Min divergence: -0.10E+00 at (2,22,14)
       Max VN number:   0.28E+00 at (26,16,22)
       Radiation Loss to Boundaries:        -8.093 kW
       Mesh    2
       Max CFL number:  0.25E+00 at (7,10,22)
       Max divergence:  0.46E-01 at (1,24,11)
       Min divergence: -0.56E-01 at (5,2,22)
       Max VN number:   0.24E+00 at (6,11,22)
       Radiation Loss to Boundaries:        -7.965 kW
       Mesh    3
       Max CFL number:  0.35E+00 at (14,31,21)
       Max divergence:  0.25E+00 at (20,28,19)
       Min divergence: -0.17E+00 at (19,26,18)
       Max VN number:   0.39E+00 at (17,25,18)
       Radiation Loss to Boundaries:        -5.351 kW
       Mesh    4
       Max CFL number:  0.12E+00 at (13,3,22)
       Max divergence:  0.25E-01 at (12,3,20)
       Min divergence: -0.28E-01 at (11,3,19)
       Max VN number:   0.93E-01 at (4,24,13)
       Radiation Loss to Boundaries:        -1.434 kW
       Mesh    5
       Max CFL number:  0.18E+00 at (5,15,18)
       Max divergence:  0.64E-01 at (1,12,16)
       Min divergence: -0.86E-01 at (1,11,17)
       Max VN number:   0.18E+00 at (17,29,18)
       Radiation Loss to Boundaries:        -3.007 kW
       Mesh    6
       Max CFL number:  0.32E+00 at (18,16,19)
       Max divergence:  0.15E+00 at (8,20,14)
       Min divergence: -0.18E+00 at (17,14,15)
       Max VN number:   0.39E+00 at (7,13,18)
       Radiation Loss to Boundaries:        -7.113 kW
       Mesh    7
       Max CFL number:  0.43E+00 at (1,13,22)
       Max divergence:  0.17E+00 at (1,25,21)
       Min divergence: -0.27E+00 at (1,25,22)
       Max VN number:   0.27E+00 at (1,24,22)
       Radiation Loss to Boundaries:        -9.905 kW
       Mesh    8
       Max CFL number:  0.88E+00 at (11,16,16)
       Max divergence:  0.96E+01 at (16,16,3)
       Min divergence: -0.32E+01 at (15,15,3)
       Max VN number:   0.43E+00 at (27,25,22)
       Total Heat Release Rate:            173.584 kW
       Radiation Loss to Boundaries:       -33.761 kW
 
       Time Step   26270   November 22, 2022  13:20:08
       Step Size:    0.595E-02 s, Total Time:     300.00 s
       Pressure Iterations: 1
       Maximum Velocity Error:  0.39E-01 on Mesh 8 at (15,16,2)
       Maximum Pressure Error:  0.51E+03 on Mesh 8 at (15,16,3)
       ---------------------------------------------------------------
       Mesh    1
       Max CFL number:  0.20E+00 at (2,1,22)
       Max divergence:  0.84E-01 at (3,1,20)
       Min divergence: -0.13E+00 at (8,3,22)
       Max VN number:   0.15E+00 at (7,7,22)
       Radiation Loss to Boundaries:        -7.894 kW
       Mesh    2
       Max CFL number:  0.18E+00 at (9,5,22)
       Max divergence:  0.55E-01 at (24,24,9)
       Min divergence: -0.76E-01 at (8,7,22)
       Max VN number:   0.14E+00 at (11,3,22)
       Radiation Loss to Boundaries:        -7.870 kW
       Mesh    3
       Max CFL number:  0.17E+00 at (20,24,18)
       Max divergence:  0.15E+00 at (12,30,18)
       Min divergence: -0.19E+00 at (19,26,18)
       Max VN number:   0.20E+00 at (18,25,18)
       Radiation Loss to Boundaries:        -5.314 kW
       Mesh    4
       Max CFL number:  0.64E-01 at (12,2,19)
       Max divergence:  0.21E-01 at (12,4,18)
       Min divergence: -0.24E-01 at (12,4,19)
       Max VN number:   0.39E-01 at (14,5,22)
       Radiation Loss to Boundaries:        -1.438 kW
       Mesh    5
       Max CFL number:  0.76E-01 at (6,16,21)
       Max divergence:  0.69E-01 at (1,12,17)
       Min divergence: -0.15E+00 at (2,18,15)
       Max VN number:   0.78E-01 at (16,29,18)
       Radiation Loss to Boundaries:        -2.997 kW
       Mesh    6
       Max CFL number:  0.16E+00 at (6,13,18)
       Max divergence:  0.12E+00 at (10,16,12)
       Min divergence: -0.12E+00 at (17,14,17)
       Max VN number:   0.17E+00 at (7,17,18)
       Radiation Loss to Boundaries:        -7.209 kW
       Mesh    7
       Max CFL number:  0.15E+00 at (5,26,22)
       Max divergence:  0.65E-01 at (1,1,13)
       Min divergence: -0.17E+00 at (1,1,14)
       Max VN number:   0.13E+00 at (1,1,14)
       Radiation Loss to Boundaries:        -9.704 kW
       Mesh    8
       Max CFL number:  0.47E+00 at (14,15,20)
       Max divergence:  0.94E+01 at (15,13,3)
       Min divergence: -0.36E+01 at (15,16,3)
       Max VN number:   0.21E+00 at (14,29,22)
       Total Heat Release Rate:            146.276 kW
       Radiation Loss to Boundaries:       -25.996 kW
 


 Time Stepping Wall Clock Time (s):     3228.734
 Total Elapsed Wall Clock Time (s):     3234.330

STOP: FDS completed successfully (CHID: Appartment)
