########################################
# Header -- Run Case -- compartment_steckler_test_013_10cm_001m
label: compartment_steckler_test_013_10cm_001m
current time: Tue Nov 22 10:37:38 CET 2022
user: larnold
machine: ana21001.pleiades.uni-wuppertal.de

########################################
# Directory Contents
total 36K
drwxrwxr-x 2 larnold cobra  167 Nov 22 10:37 .
drwxrwxr-x 6 larnold cobra  135 Nov 22 10:32 ..
-rw-r--r-- 1 larnold cobra 8.2K Nov 22 10:34 appartment.fds
-rw-rw-r-- 1 larnold cobra 1.5K Nov 22 10:33 case_download.sh
-rw-rw-r-- 1 larnold cobra 1.8K Nov 22 10:33 case_pack.sh
-rw-rw-r-- 1 larnold cobra 2.7K Nov 22 10:37 case_run.sh
-rw-rw-r-- 1 larnold cobra 2.6K Nov 22 10:33 case_run.sh~
-rw-rw-r-- 1 larnold cobra   39 Nov 22 10:33 label
-rw-rw-r-- 1 larnold cobra  316 Nov 22 10:37 log

########################################
# FDS Version

 Fire Dynamics Simulator

 Current Date     : November 22, 2022  10:37:39
 Revision         : FDS6.7.9-0-gec52dee-HEAD
 Revision Date    : Sun Jun 26 14:36:40 2022 -0400
 Compiler         : ifort version 2021.2.0
 Compilation Date : Jun 30, 2022 15:04:40

 MPI Enabled;    Number of MPI Processes:       1
 OpenMP Disabled

 MPI version: 3.1
 MPI library version: Intel(R) MPI Library 2021.2 for Linux* OS

 Consult FDS Users Guide Chapter, Running FDS, for further instructions.

########################################
# FDS File Check
number of FDS input files found: 1
name of FDS input file: appartment.fds

########################################
# FDS File Contents
&HEAD CHID='Appartment' TITLE='This is an example case' /
&TIME T_END=10.0 /

&MISC BNDF_DEFAULT = F /
&BNDF QUANTITY = 'WALL TEMPERATURE' /



# ---------------------------------------
# Domain boundary
# ---------------------------------------

&VENT DB='YMAX', SURF_ID='OPEN' /

&VENT ID='OpenCeiling'
      SURF_ID='OPEN'
      XB=-1.5000,9.3000,4.3000,5.0000,2.2000,2.2000 /
&VENT ID='OpenLeft'
      SURF_ID='OPEN'
      XB=9.3000,9.3000,4.3000,5.0000,0.0000,2.2000 /
&VENT ID='OpenRight'
      SURF_ID='OPEN'
      XB=-1.5000,-1.5000,4.3000,5.0000,0.0000,2.2000 /



# ---------------------------------------
# Gas burner: methane
# ---------------------------------------
&SPEC ID = 'METHANE' /

&REAC FUEL               = 'METHANE',
      SOOT_YIELD         = 0.060,
      RADIATIVE_FRACTION = 0.02 /

# Burners:
&SURF ID         = 'BURNER',
      HRRPUA     = 1000.0,
      TMP_FRONT  = 250.0,
      COLOR      = 'RASPBERRY' /

&OBST ID       = 'BurnerBase',
      SURF_IDS = 'BURNER', 'Wall Lining', 'Wall Lining',
      XB = -0.20,0.20, -0.20,0.20, 0.00,0.20 /



# ---------------------------------------
# Surface definition (boundary conditions)
# ---------------------------------------

&SURF ID                      = 'Wall Lining',
      COLOR                   = 'BEIGE',
      DEFAULT                 = T,
      THICKNESS(1:1)          = 0.0254,
      MATL_ID(1,1:1)          = 'MARINITE',
      MATL_MASS_FRACTION(1,1) = 1.0 /


&MATL ID            = 'MARINITE'
      EMISSIVITY    = 0.9
      DENSITY       = 737.
      SPECIFIC_HEAT = 1.2
      CONDUCTIVITY  = 0.12 /



--- Computational domain  - 8 MESH

Cell Qty: 19008 | Size: 0.100·0.100·0.100m | Aspect: 1.0 | Poisson: No
&MESH ID='Domain' IJK=27,32,22 XB=-1.5000,1.2000,1.8000,5.0000,0.0000,2.2000 /
Cell Qty: 19008 | Size: 0.100·0.100·0.100m | Aspect: 1.0 | Poisson: No
&MESH ID='Domain.001' IJK=27,32,22 XB=1.2000,3.9000,1.8000,5.0000,0.0000,2.2000 /
Cell Qty: 19008 | Size: 0.100·0.100·0.100m | Aspect: 1.0 | Poisson: No
&MESH ID='Domain.002' IJK=27,32,22 XB=3.9000,6.6000,1.8000,5.0000,0.0000,2.2000 /
Cell Qty: 19008 | Size: 0.100·0.100·0.100m | Aspect: 1.0 | Poisson: No
&MESH ID='Domain.003' IJK=27,32,22 XB=6.6000,9.3000,1.8000,5.0000,0.0000,2.2000 /
Cell Qty: 19008 | Size: 0.100·0.100·0.100m | Aspect: 1.0 | Poisson: No
&MESH ID='Domain.004' IJK=27,32,22 XB=6.6000,9.3000,-1.4000,1.8000,0.0000,2.2000 /
Cell Qty: 19008 | Size: 0.100·0.100·0.100m | Aspect: 1.0 | Poisson: No
&MESH ID='Domain.005' IJK=27,32,22 XB=3.9000,6.6000,-1.4000,1.8000,0.0000,2.2000 /
Cell Qty: 19008 | Size: 0.100·0.100·0.100m | Aspect: 1.0 | Poisson: No
&MESH ID='Domain.006' IJK=27,32,22 XB=1.2000,3.9000,-1.4000,1.8000,0.0000,2.2000 /
Cell Qty: 19008 | Size: 0.100·0.100·0.100m | Aspect: 1.0 | Poisson: No
&MESH ID='Domain.007' IJK=27,32,22
      XB=-1.5000,1.2000,-1.4000,1.8000,0.0000,2.2000 /



--- Geometric namelists from Blender Collections

-- Blender Collection: <Obstacles>
&OBST ID='AppartmentDoor',
      XB=4.6000,5.1000,4.2000,4.3000,0.0000,2.2000 SURF_ID='Wall Lining' /
&OBST ID='AppartmentDoor.001',
      XB=5.9000,6.4000,4.2000,4.3000,0.0000,2.2000 SURF_ID='Wall Lining' /
&OBST ID='AppartmentDoor.002',
      XB=5.1000,5.9000,4.2000,4.3000,1.8000,2.2000 SURF_ID='Wall Lining' /

&OBST ID='Ceiling' SURF_ID='Wall Lining'
      XB=-1.5000,4.6000,-1.5000,4.3000,2.2000,2.3100 SURF_ID='Wall Lining' /
&OBST ID='Ceiling.001' SURF_ID='Wall Lining'
      XB=4.6000,9.4000,-1.5000,4.3000,2.2000,2.3100 SURF_ID='Wall Lining' /
&OBST ID='Floor', XB=-1.5000,9.4000,-1.5000,6.3100,-0.1100,0.0000
      SURF_ID='Wall Lining' /

&OBST ID='WallBack',
      XB=-1.5000,-1.4000,-1.4000,4.2000,0.0000,2.2000 SURF_ID='Wall Lining'
      BNDF_OBST=T /
&OBST ID='WallBack.001',
      XB=9.3000,9.4000,-1.5000,4.3000,0.0000,2.2000 SURF_ID='Wall Lining' /
&OBST ID='WallBathroom',
      XB=6.5000,7.5000,1.4000,1.5100,0.0000,2.2000 SURF_ID='Wall Lining' /
&OBST ID='WallBathroom.001',
      XB=8.3000,9.3200,1.4000,1.5100,0.0000,2.2000 SURF_ID='Wall Lining' /
&OBST ID='WallBathroom.002',
      XB=7.5000,8.3000,1.4000,1.5100,1.8000,2.2000 SURF_ID='Wall Lining' /
&OBST ID='WallCorridorKitchen',
      XB=6.4000,6.5000,0.4000,4.3000,0.0000,2.2000 SURF_ID='Wall Lining' /
&OBST ID='WallCorridorKitchen.001',
      XB=6.4000,6.5000,-1.5000,-0.4000,0.0000,2.2000 SURF_ID='Wall Lining' /
&OBST ID='WallCorridorKitchen.002',
      XB=6.4000,6.5000,-0.4000,0.4000,1.8000,2.2000 SURF_ID='Wall Lining' /
&OBST ID='WallCorridorLivingroom',
      XB=4.5000,4.6000,-1.5000,-0.4000,0.0000,2.2000 SURF_ID='Wall Lining'
      BNDF_OBST=T /
&OBST ID='WallCorridorLivingroom.001',
      XB=4.5000,4.6000,0.4000,4.3000,0.0000,2.2000 SURF_ID='Wall Lining'
      BNDF_OBST=T /
&OBST ID='WallCorridorLivingroom.002',
      XB=4.5000,4.6000,-0.4000,0.4000,1.8000,2.2000 SURF_ID='Wall Lining'
      BNDF_OBST=T /
&OBST ID='WallLeft',
      XB=-1.5000,4.5000,-1.5000,-1.4000,0.0000,2.2000 SURF_ID='Wall Lining' /
&OBST ID='WallLeft.001',
      XB=6.5000,9.3000,4.2000,4.3000,0.0000,2.2000 SURF_ID='Wall Lining' /
&OBST ID='WallLeft.002',
      XB=4.6000,6.4000,-1.5000,-1.4000,0.0000,2.2000 SURF_ID='Wall Lining' /
&OBST ID='WallRight',
      XB=-1.5000,4.5000,4.2000,4.3000,0.0000,2.2000 SURF_ID='Wall Lining' /
&OBST ID='WallRight.001',
      XB=6.5000,9.3000,-1.5000,-1.4000,0.0000,2.2000 SURF_ID='Wall Lining' /



# ---------------------------------------
# Analytics
# ---------------------------------------

&SLCF ID            = 'DoorLivingroomTempX',
      PBX           = 4.5500,
      QUANTITY      = 'TEMPERATURE',
      CELL_CENTERED = T /
&SLCF ID            = 'BurnerTempX',
      PBX           = 0.0000,
      QUANTITY      = 'TEMPERATURE'
      CELL_CENTERED = T /
&SLCF ID            = 'CorridorTempX'
      PBX           = 5.5000,
      QUANTITY      = 'TEMPERATURE',
      CELL_CENTERED = T /
&SLCF ID            = 'KitchenTempX'
      PBX           = 7.9000,
      QUANTITY      = 'TEMPERATURE',
      CELL_CENTERED = T /
&SLCF ID            = 'LivingRoomTempX'
      PBX           = 3.5000,
      QUANTITY      = 'TEMPERATURE',
      CELL_CENTERED = T /
&SLCF ID            = 'BurnerTempY_0'
      PBY           = -0.0000,
      QUANTITY      = 'TEMPERATURE',
      CELL_CENTERED = T /
&SLCF ID            = 'BurnerTempY_1'
      PBY           = -0.0000,
      QUANTITY      = 'TEMPERATURE',
      CELL_CENTERED = T /
&SLCF ID            = 'TempZ_1.0m'
      PBZ           = 1.0000,
      QUANTITY      = 'TEMPERATURE',
      CELL_CENTERED = T /
&SLCF ID            = 'TempZ_1.5m'
      PBZ           = 1.5000,
      QUANTITY      = 'TEMPERATURE',
      CELL_CENTERED = T /


&SLCF ID            = 'DoorLivingroomSootX',
      PBX           = 4.5500,
      QUANTITY      = 'soot',
      CELL_CENTERED = T /
&SLCF ID            = 'BurnerSootX',
      PBX           = 0.0000,
      QUANTITY      = 'soot'
      CELL_CENTERED = T /
&SLCF ID            = 'CorridorSootX'
      PBX           = 5.5000,
      QUANTITY      = 'soot',
      CELL_CENTERED = T /
&SLCF ID            = 'KitchenSootX'
      PBX           = 7.9000,
      QUANTITY      = 'soot',
      CELL_CENTERED = T /
&SLCF ID            = 'LivingRoomSootX'
      PBX           = 3.5000,
      QUANTITY      = 'soot',
      CELL_CENTERED = T /
&SLCF ID            = 'BurnerSootY_0'
      PBY           = -0.0000,
      QUANTITY      = 'soot',
      CELL_CENTERED = T /
&SLCF ID            = 'BurnerSootY_1'
      PBY           = -0.0000,
      QUANTITY      = 'soot',
      CELL_CENTERED = T /
&SLCF ID            = 'SootZ_1.0m'
      PBZ           = 1.0000,
      QUANTITY      = 'soot',
      CELL_CENTERED = T /
&SLCF ID            = 'SootZ_1.5m'
      PBZ           = 1.5000,
      QUANTITY      = 'soot',
      CELL_CENTERED = T /


&SLCF ID            = 'DoorLivingroomUVelX',
      PBX           = 4.5500,
      QUANTITY      = 'U-VELOCITY',
      CELL_CENTERED = T /

&SLCF ID            = 'DoorLivingroomDensityX',
      PBX           = 4.5500,
      QUANTITY      = 'DENSITY',
      CELL_CENTERED = T /

&TAIL /

########################################
# Prepare Run Directory 

########################################
# Execute FDS
FDSPRE:     mpiexec -np 8
FDSTHREADS: 1
FDS:        fds
FDSFILE:    appartment.fds

 Starting FDS ...

 MPI Process      6 started on ana21001.pleiades.uni-wuppertal.de
 MPI Process      2 started on ana21001.pleiades.uni-wuppertal.de
 MPI Process      5 started on ana21001.pleiades.uni-wuppertal.de
 MPI Process      1 started on ana21001.pleiades.uni-wuppertal.de
 MPI Process      7 started on ana21001.pleiades.uni-wuppertal.de
 MPI Process      3 started on ana21001.pleiades.uni-wuppertal.de
 MPI Process      0 started on ana21001.pleiades.uni-wuppertal.de
 MPI Process      4 started on ana21001.pleiades.uni-wuppertal.de

 Reading FDS input file ...


 Fire Dynamics Simulator

 Current Date     : November 22, 2022  10:37:41
 Revision         : FDS6.7.9-0-gec52dee-HEAD
 Revision Date    : Sun Jun 26 14:36:40 2022 -0400
 Compiler         : ifort version 2021.2.0
 Compilation Date : Jun 30, 2022 15:04:40

 MPI Enabled;    Number of MPI Processes:       8
 OpenMP Disabled

 MPI version: 3.1
 MPI library version: Intel(R) MPI Library 2021.2 for Linux* OS


 Job TITLE        : This is an example case
 Job ID string    : Appartment

 Time Step:      1, Simulation Time:      0.11 s
 Time Step:      2, Simulation Time:      0.21 s
 Time Step:      3, Simulation Time:      0.32 s
 Time Step:      4, Simulation Time:      0.43 s
 Time Step:      5, Simulation Time:      0.50 s
 Time Step:      6, Simulation Time:      0.57 s
 Time Step:      7, Simulation Time:      0.63 s
 Time Step:      8, Simulation Time:      0.67 s
 Time Step:      9, Simulation Time:      0.71 s
 Time Step:     10, Simulation Time:      0.76 s
 Time Step:     20, Simulation Time:      0.97 s
 Time Step:     30, Simulation Time:      1.09 s
 Time Step:     40, Simulation Time:      1.21 s
 Time Step:     50, Simulation Time:      1.32 s
 Time Step:     60, Simulation Time:      1.40 s
 Time Step:     70, Simulation Time:      1.49 s
 Time Step:     80, Simulation Time:      1.59 s
 Time Step:     90, Simulation Time:      1.68 s
 Time Step:    100, Simulation Time:      1.76 s
 Time Step:    200, Simulation Time:      2.78 s
 Time Step:    300, Simulation Time:      3.78 s
 Time Step:    400, Simulation Time:      4.75 s
 Time Step:    500, Simulation Time:      5.89 s
 Time Step:    600, Simulation Time:      6.86 s
 Time Step:    700, Simulation Time:      7.89 s
 Time Step:    800, Simulation Time:      8.91 s
 Time Step:    900, Simulation Time:      9.91 s
 Time Step:    909, Simulation Time:     10.00 s

STOP: FDS completed successfully (CHID: Appartment)

########################################
# Run Directory Contents
total 325M
drwxrwxr-x 2 larnold cobra 8.0K Nov 22 10:39 .
drwxrwxr-x 3 larnold cobra  185 Nov 22 10:37 ..
-rw-rw-r-- 1 larnold cobra 2.0M Nov 22 10:39 Appartment_1_1.bf
-rw-rw-r-- 1 larnold cobra  37K Nov 22 10:39 Appartment_1_1.bf.bnd
-rw-rw-r-- 1 larnold cobra 3.2M Nov 22 10:39 Appartment_1_1.s3d
-rw-rw-r-- 1 larnold cobra  48K Nov 22 10:39 Appartment_1_1.s3d.sz
-rw-rw-r-- 1 larnold cobra 2.6M Nov 22 10:39 Appartment_1_1.sf
-rw-rw-r-- 1 larnold cobra  37K Nov 22 10:39 Appartment_1_1.sf.bnd
-rw-rw-r-- 1 larnold cobra 250K Nov 22 10:39 Appartment_1_2.s3d
-rw-rw-r-- 1 larnold cobra  48K Nov 22 10:39 Appartment_1_2.s3d.sz
-rw-rw-r-- 1 larnold cobra 3.2M Nov 22 10:39 Appartment_1_2.sf
-rw-rw-r-- 1 larnold cobra  37K Nov 22 10:39 Appartment_1_2.sf.bnd
-rw-rw-r-- 1 larnold cobra 2.3M Nov 22 10:39 Appartment_1_3.s3d
-rw-rw-r-- 1 larnold cobra  48K Nov 22 10:39 Appartment_1_3.s3d.sz
-rw-rw-r-- 1 larnold cobra 3.2M Nov 22 10:39 Appartment_1_3.sf
-rw-rw-r-- 1 larnold cobra  37K Nov 22 10:39 Appartment_1_3.sf.bnd
-rw-rw-r-- 1 larnold cobra 2.6M Nov 22 10:39 Appartment_1_4.sf
-rw-rw-r-- 1 larnold cobra  37K Nov 22 10:39 Appartment_1_4.sf.bnd
-rw-rw-r-- 1 larnold cobra 3.2M Nov 22 10:39 Appartment_1_5.sf
-rw-rw-r-- 1 larnold cobra  37K Nov 22 10:39 Appartment_1_5.sf.bnd
-rw-rw-r-- 1 larnold cobra 3.2M Nov 22 10:39 Appartment_1_6.sf
-rw-rw-r-- 1 larnold cobra  37K Nov 22 10:39 Appartment_1_6.sf.bnd
-rw-rw-r-- 1 larnold cobra 2.1M Nov 22 10:39 Appartment_2_1.s3d
-rw-rw-r-- 1 larnold cobra  48K Nov 22 10:39 Appartment_2_1.s3d.sz
-rw-rw-r-- 1 larnold cobra 2.6M Nov 22 10:39 Appartment_2_1.sf
-rw-rw-r-- 1 larnold cobra  37K Nov 22 10:39 Appartment_2_1.sf.bnd
-rw-rw-r-- 1 larnold cobra 250K Nov 22 10:39 Appartment_2_2.s3d
-rw-rw-r-- 1 larnold cobra  48K Nov 22 10:39 Appartment_2_2.s3d.sz
-rw-rw-r-- 1 larnold cobra 3.2M Nov 22 10:39 Appartment_2_2.sf
-rw-rw-r-- 1 larnold cobra  37K Nov 22 10:39 Appartment_2_2.sf.bnd
-rw-rw-r-- 1 larnold cobra 1.3M Nov 22 10:39 Appartment_2_3.s3d
-rw-rw-r-- 1 larnold cobra  48K Nov 22 10:39 Appartment_2_3.s3d.sz
-rw-rw-r-- 1 larnold cobra 3.2M Nov 22 10:39 Appartment_2_3.sf
-rw-rw-r-- 1 larnold cobra  37K Nov 22 10:39 Appartment_2_3.sf.bnd
-rw-rw-r-- 1 larnold cobra 2.6M Nov 22 10:39 Appartment_2_4.sf
-rw-rw-r-- 1 larnold cobra  37K Nov 22 10:39 Appartment_2_4.sf.bnd
-rw-rw-r-- 1 larnold cobra 3.2M Nov 22 10:39 Appartment_2_5.sf
-rw-rw-r-- 1 larnold cobra  37K Nov 22 10:39 Appartment_2_5.sf.bnd
-rw-rw-r-- 1 larnold cobra 3.2M Nov 22 10:39 Appartment_2_6.sf
-rw-rw-r-- 1 larnold cobra  37K Nov 22 10:39 Appartment_2_6.sf.bnd
-rw-rw-r-- 1 larnold cobra 2.6M Nov 22 10:39 Appartment_3_10.sf
-rw-rw-r-- 1 larnold cobra  37K Nov 22 10:39 Appartment_3_10.sf.bnd
-rw-rw-r-- 1 larnold cobra 4.3M Nov 22 10:39 Appartment_3_1.bf
-rw-rw-r-- 1 larnold cobra  37K Nov 22 10:39 Appartment_3_1.bf.bnd
-rw-rw-r-- 1 larnold cobra 1.1M Nov 22 10:39 Appartment_3_1.s3d
-rw-rw-r-- 1 larnold cobra  48K Nov 22 10:39 Appartment_3_1.s3d.sz
-rw-rw-r-- 1 larnold cobra 2.6M Nov 22 10:39 Appartment_3_1.sf
-rw-rw-r-- 1 larnold cobra  37K Nov 22 10:39 Appartment_3_1.sf.bnd
-rw-rw-r-- 1 larnold cobra 250K Nov 22 10:39 Appartment_3_2.s3d
-rw-rw-r-- 1 larnold cobra  48K Nov 22 10:39 Appartment_3_2.s3d.sz
-rw-rw-r-- 1 larnold cobra 2.6M Nov 22 10:39 Appartment_3_2.sf
-rw-rw-r-- 1 larnold cobra  37K Nov 22 10:39 Appartment_3_2.sf.bnd
-rw-rw-r-- 1 larnold cobra 897K Nov 22 10:39 Appartment_3_3.s3d
-rw-rw-r-- 1 larnold cobra  48K Nov 22 10:39 Appartment_3_3.s3d.sz
-rw-rw-r-- 1 larnold cobra 3.2M Nov 22 10:39 Appartment_3_3.sf
-rw-rw-r-- 1 larnold cobra  37K Nov 22 10:39 Appartment_3_3.sf.bnd
-rw-rw-r-- 1 larnold cobra 3.2M Nov 22 10:39 Appartment_3_4.sf
-rw-rw-r-- 1 larnold cobra  37K Nov 22 10:39 Appartment_3_4.sf.bnd
-rw-rw-r-- 1 larnold cobra 2.6M Nov 22 10:39 Appartment_3_5.sf
-rw-rw-r-- 1 larnold cobra  37K Nov 22 10:39 Appartment_3_5.sf.bnd
-rw-rw-r-- 1 larnold cobra 2.6M Nov 22 10:39 Appartment_3_6.sf
-rw-rw-r-- 1 larnold cobra  37K Nov 22 10:39 Appartment_3_6.sf.bnd
-rw-rw-r-- 1 larnold cobra 3.2M Nov 22 10:39 Appartment_3_7.sf
-rw-rw-r-- 1 larnold cobra  37K Nov 22 10:39 Appartment_3_7.sf.bnd
-rw-rw-r-- 1 larnold cobra 3.2M Nov 22 10:39 Appartment_3_8.sf
-rw-rw-r-- 1 larnold cobra  37K Nov 22 10:39 Appartment_3_8.sf.bnd
-rw-rw-r-- 1 larnold cobra 2.6M Nov 22 10:39 Appartment_3_9.sf
-rw-rw-r-- 1 larnold cobra  37K Nov 22 10:39 Appartment_3_9.sf.bnd
-rw-rw-r-- 1 larnold cobra 250K Nov 22 10:39 Appartment_4_1.s3d
-rw-rw-r-- 1 larnold cobra  48K Nov 22 10:39 Appartment_4_1.s3d.sz
-rw-rw-r-- 1 larnold cobra 2.6M Nov 22 10:39 Appartment_4_1.sf
-rw-rw-r-- 1 larnold cobra  37K Nov 22 10:39 Appartment_4_1.sf.bnd
-rw-rw-r-- 1 larnold cobra 250K Nov 22 10:39 Appartment_4_2.s3d
-rw-rw-r-- 1 larnold cobra  48K Nov 22 10:39 Appartment_4_2.s3d.sz
-rw-rw-r-- 1 larnold cobra 3.2M Nov 22 10:39 Appartment_4_2.sf
-rw-rw-r-- 1 larnold cobra  37K Nov 22 10:39 Appartment_4_2.sf.bnd
-rw-rw-r-- 1 larnold cobra 250K Nov 22 10:39 Appartment_4_3.s3d
-rw-rw-r-- 1 larnold cobra  48K Nov 22 10:39 Appartment_4_3.s3d.sz
-rw-rw-r-- 1 larnold cobra 3.2M Nov 22 10:39 Appartment_4_3.sf
-rw-rw-r-- 1 larnold cobra  37K Nov 22 10:39 Appartment_4_3.sf.bnd
-rw-rw-r-- 1 larnold cobra 2.6M Nov 22 10:39 Appartment_4_4.sf
-rw-rw-r-- 1 larnold cobra  37K Nov 22 10:39 Appartment_4_4.sf.bnd
-rw-rw-r-- 1 larnold cobra 3.2M Nov 22 10:39 Appartment_4_5.sf
-rw-rw-r-- 1 larnold cobra  37K Nov 22 10:39 Appartment_4_5.sf.bnd
-rw-rw-r-- 1 larnold cobra 3.2M Nov 22 10:39 Appartment_4_6.sf
-rw-rw-r-- 1 larnold cobra  37K Nov 22 10:39 Appartment_4_6.sf.bnd
-rw-rw-r-- 1 larnold cobra 3.2M Nov 22 10:39 Appartment_5_10.sf
-rw-rw-r-- 1 larnold cobra  37K Nov 22 10:39 Appartment_5_10.sf.bnd
-rw-rw-r-- 1 larnold cobra 250K Nov 22 10:39 Appartment_5_1.s3d
-rw-rw-r-- 1 larnold cobra  48K Nov 22 10:39 Appartment_5_1.s3d.sz
-rw-rw-r-- 1 larnold cobra 2.6M Nov 22 10:39 Appartment_5_1.sf
-rw-rw-r-- 1 larnold cobra  37K Nov 22 10:39 Appartment_5_1.sf.bnd
-rw-rw-r-- 1 larnold cobra 250K Nov 22 10:39 Appartment_5_2.s3d
-rw-rw-r-- 1 larnold cobra  48K Nov 22 10:39 Appartment_5_2.s3d.sz
-rw-rw-r-- 1 larnold cobra 2.2M Nov 22 10:39 Appartment_5_2.sf
-rw-rw-r-- 1 larnold cobra  37K Nov 22 10:39 Appartment_5_2.sf.bnd
-rw-rw-r-- 1 larnold cobra 250K Nov 22 10:39 Appartment_5_3.s3d
-rw-rw-r-- 1 larnold cobra  48K Nov 22 10:39 Appartment_5_3.s3d.sz
-rw-rw-r-- 1 larnold cobra 2.2M Nov 22 10:39 Appartment_5_3.sf
-rw-rw-r-- 1 larnold cobra  37K Nov 22 10:39 Appartment_5_3.sf.bnd
-rw-rw-r-- 1 larnold cobra 3.2M Nov 22 10:39 Appartment_5_4.sf
-rw-rw-r-- 1 larnold cobra  37K Nov 22 10:39 Appartment_5_4.sf.bnd
-rw-rw-r-- 1 larnold cobra 3.2M Nov 22 10:39 Appartment_5_5.sf
-rw-rw-r-- 1 larnold cobra  37K Nov 22 10:39 Appartment_5_5.sf.bnd
-rw-rw-r-- 1 larnold cobra 2.6M Nov 22 10:39 Appartment_5_6.sf
-rw-rw-r-- 1 larnold cobra  37K Nov 22 10:39 Appartment_5_6.sf.bnd
-rw-rw-r-- 1 larnold cobra 2.2M Nov 22 10:39 Appartment_5_7.sf
-rw-rw-r-- 1 larnold cobra  37K Nov 22 10:39 Appartment_5_7.sf.bnd
-rw-rw-r-- 1 larnold cobra 2.2M Nov 22 10:39 Appartment_5_8.sf
-rw-rw-r-- 1 larnold cobra  37K Nov 22 10:39 Appartment_5_8.sf.bnd
-rw-rw-r-- 1 larnold cobra 3.2M Nov 22 10:39 Appartment_5_9.sf
-rw-rw-r-- 1 larnold cobra  37K Nov 22 10:39 Appartment_5_9.sf.bnd
-rw-rw-r-- 1 larnold cobra 2.2M Nov 22 10:39 Appartment_6_10.sf
-rw-rw-r-- 1 larnold cobra  37K Nov 22 10:39 Appartment_6_10.sf.bnd
-rw-rw-r-- 1 larnold cobra 3.2M Nov 22 10:39 Appartment_6_11.sf
-rw-rw-r-- 1 larnold cobra  37K Nov 22 10:39 Appartment_6_11.sf.bnd
-rw-rw-r-- 1 larnold cobra 3.2M Nov 22 10:39 Appartment_6_12.sf
-rw-rw-r-- 1 larnold cobra  37K Nov 22 10:39 Appartment_6_12.sf.bnd
-rw-rw-r-- 1 larnold cobra 2.6M Nov 22 10:39 Appartment_6_13.sf
-rw-rw-r-- 1 larnold cobra  37K Nov 22 10:39 Appartment_6_13.sf.bnd
-rw-rw-r-- 1 larnold cobra 2.6M Nov 22 10:39 Appartment_6_14.sf
-rw-rw-r-- 1 larnold cobra  37K Nov 22 10:39 Appartment_6_14.sf.bnd
-rw-rw-r-- 1 larnold cobra 4.9M Nov 22 10:39 Appartment_6_1.bf
-rw-rw-r-- 1 larnold cobra  37K Nov 22 10:39 Appartment_6_1.bf.bnd
-rw-rw-r-- 1 larnold cobra 2.2M Nov 22 10:39 Appartment_6_1.s3d
-rw-rw-r-- 1 larnold cobra  48K Nov 22 10:39 Appartment_6_1.s3d.sz
-rw-rw-r-- 1 larnold cobra 2.6M Nov 22 10:39 Appartment_6_1.sf
-rw-rw-r-- 1 larnold cobra  37K Nov 22 10:39 Appartment_6_1.sf.bnd
-rw-rw-r-- 1 larnold cobra 250K Nov 22 10:39 Appartment_6_2.s3d
-rw-rw-r-- 1 larnold cobra  48K Nov 22 10:39 Appartment_6_2.s3d.sz
-rw-rw-r-- 1 larnold cobra 2.6M Nov 22 10:39 Appartment_6_2.sf
-rw-rw-r-- 1 larnold cobra  37K Nov 22 10:39 Appartment_6_2.sf.bnd
-rw-rw-r-- 1 larnold cobra 1.8M Nov 22 10:39 Appartment_6_3.s3d
-rw-rw-r-- 1 larnold cobra  48K Nov 22 10:39 Appartment_6_3.s3d.sz
-rw-rw-r-- 1 larnold cobra 2.2M Nov 22 10:39 Appartment_6_3.sf
-rw-rw-r-- 1 larnold cobra  37K Nov 22 10:39 Appartment_6_3.sf.bnd
-rw-rw-r-- 1 larnold cobra 2.2M Nov 22 10:39 Appartment_6_4.sf
-rw-rw-r-- 1 larnold cobra  37K Nov 22 10:39 Appartment_6_4.sf.bnd
-rw-rw-r-- 1 larnold cobra 3.2M Nov 22 10:39 Appartment_6_5.sf
-rw-rw-r-- 1 larnold cobra  37K Nov 22 10:39 Appartment_6_5.sf.bnd
-rw-rw-r-- 1 larnold cobra 3.2M Nov 22 10:39 Appartment_6_6.sf
-rw-rw-r-- 1 larnold cobra  37K Nov 22 10:39 Appartment_6_6.sf.bnd
-rw-rw-r-- 1 larnold cobra 2.6M Nov 22 10:39 Appartment_6_7.sf
-rw-rw-r-- 1 larnold cobra  37K Nov 22 10:39 Appartment_6_7.sf.bnd
-rw-rw-r-- 1 larnold cobra 2.6M Nov 22 10:39 Appartment_6_8.sf
-rw-rw-r-- 1 larnold cobra  37K Nov 22 10:39 Appartment_6_8.sf.bnd
-rw-rw-r-- 1 larnold cobra 2.2M Nov 22 10:39 Appartment_6_9.sf
-rw-rw-r-- 1 larnold cobra  37K Nov 22 10:39 Appartment_6_9.sf.bnd
-rw-rw-r-- 1 larnold cobra 3.2M Nov 22 10:39 Appartment_7_10.sf
-rw-rw-r-- 1 larnold cobra  37K Nov 22 10:39 Appartment_7_10.sf.bnd
-rw-rw-r-- 1 larnold cobra 3.4M Nov 22 10:39 Appartment_7_1.s3d
-rw-rw-r-- 1 larnold cobra  48K Nov 22 10:39 Appartment_7_1.s3d.sz
-rw-rw-r-- 1 larnold cobra 2.6M Nov 22 10:39 Appartment_7_1.sf
-rw-rw-r-- 1 larnold cobra  37K Nov 22 10:39 Appartment_7_1.sf.bnd
-rw-rw-r-- 1 larnold cobra 250K Nov 22 10:39 Appartment_7_2.s3d
-rw-rw-r-- 1 larnold cobra  48K Nov 22 10:39 Appartment_7_2.s3d.sz
-rw-rw-r-- 1 larnold cobra 2.2M Nov 22 10:39 Appartment_7_2.sf
-rw-rw-r-- 1 larnold cobra  37K Nov 22 10:39 Appartment_7_2.sf.bnd
-rw-rw-r-- 1 larnold cobra 2.4M Nov 22 10:39 Appartment_7_3.s3d
-rw-rw-r-- 1 larnold cobra  48K Nov 22 10:39 Appartment_7_3.s3d.sz
-rw-rw-r-- 1 larnold cobra 2.2M Nov 22 10:39 Appartment_7_3.sf
-rw-rw-r-- 1 larnold cobra  37K Nov 22 10:39 Appartment_7_3.sf.bnd
-rw-rw-r-- 1 larnold cobra 3.2M Nov 22 10:39 Appartment_7_4.sf
-rw-rw-r-- 1 larnold cobra  37K Nov 22 10:39 Appartment_7_4.sf.bnd
-rw-rw-r-- 1 larnold cobra 3.2M Nov 22 10:39 Appartment_7_5.sf
-rw-rw-r-- 1 larnold cobra  37K Nov 22 10:39 Appartment_7_5.sf.bnd
-rw-rw-r-- 1 larnold cobra 2.6M Nov 22 10:39 Appartment_7_6.sf
-rw-rw-r-- 1 larnold cobra  37K Nov 22 10:39 Appartment_7_6.sf.bnd
-rw-rw-r-- 1 larnold cobra 2.2M Nov 22 10:39 Appartment_7_7.sf
-rw-rw-r-- 1 larnold cobra  37K Nov 22 10:39 Appartment_7_7.sf.bnd
-rw-rw-r-- 1 larnold cobra 2.2M Nov 22 10:39 Appartment_7_8.sf
-rw-rw-r-- 1 larnold cobra  37K Nov 22 10:39 Appartment_7_8.sf.bnd
-rw-rw-r-- 1 larnold cobra 3.2M Nov 22 10:39 Appartment_7_9.sf
-rw-rw-r-- 1 larnold cobra  37K Nov 22 10:39 Appartment_7_9.sf.bnd
-rw-rw-r-- 1 larnold cobra 3.2M Nov 22 10:39 Appartment_8_10.sf
-rw-rw-r-- 1 larnold cobra  37K Nov 22 10:39 Appartment_8_10.sf.bnd
-rw-rw-r-- 1 larnold cobra 2.6M Nov 22 10:39 Appartment_8_1.bf
-rw-rw-r-- 1 larnold cobra  37K Nov 22 10:39 Appartment_8_1.bf.bnd
-rw-rw-r-- 1 larnold cobra 7.2M Nov 22 10:39 Appartment_8_1.s3d
-rw-rw-r-- 1 larnold cobra  48K Nov 22 10:39 Appartment_8_1.s3d.sz
-rw-rw-r-- 1 larnold cobra 2.6M Nov 22 10:39 Appartment_8_1.sf
-rw-rw-r-- 1 larnold cobra  37K Nov 22 10:39 Appartment_8_1.sf.bnd
-rw-rw-r-- 1 larnold cobra 953K Nov 22 10:39 Appartment_8_2.s3d
-rw-rw-r-- 1 larnold cobra  48K Nov 22 10:39 Appartment_8_2.s3d.sz
-rw-rw-r-- 1 larnold cobra 2.2M Nov 22 10:39 Appartment_8_2.sf
-rw-rw-r-- 1 larnold cobra  37K Nov 22 10:39 Appartment_8_2.sf.bnd
-rw-rw-r-- 1 larnold cobra 5.6M Nov 22 10:39 Appartment_8_3.s3d
-rw-rw-r-- 1 larnold cobra  48K Nov 22 10:39 Appartment_8_3.s3d.sz
-rw-rw-r-- 1 larnold cobra 2.2M Nov 22 10:39 Appartment_8_3.sf
-rw-rw-r-- 1 larnold cobra  37K Nov 22 10:39 Appartment_8_3.sf.bnd
-rw-rw-r-- 1 larnold cobra 3.2M Nov 22 10:39 Appartment_8_4.sf
-rw-rw-r-- 1 larnold cobra  37K Nov 22 10:39 Appartment_8_4.sf.bnd
-rw-rw-r-- 1 larnold cobra 3.2M Nov 22 10:39 Appartment_8_5.sf
-rw-rw-r-- 1 larnold cobra  37K Nov 22 10:39 Appartment_8_5.sf.bnd
-rw-rw-r-- 1 larnold cobra 2.6M Nov 22 10:39 Appartment_8_6.sf
-rw-rw-r-- 1 larnold cobra  37K Nov 22 10:39 Appartment_8_6.sf.bnd
-rw-rw-r-- 1 larnold cobra 2.2M Nov 22 10:39 Appartment_8_7.sf
-rw-rw-r-- 1 larnold cobra  37K Nov 22 10:39 Appartment_8_7.sf.bnd
-rw-rw-r-- 1 larnold cobra 2.2M Nov 22 10:39 Appartment_8_8.sf
-rw-rw-r-- 1 larnold cobra  37K Nov 22 10:39 Appartment_8_8.sf.bnd
-rw-rw-r-- 1 larnold cobra 3.2M Nov 22 10:39 Appartment_8_9.sf
-rw-rw-r-- 1 larnold cobra  37K Nov 22 10:39 Appartment_8_9.sf.bnd
-rw-rw-r-- 1 larnold cobra    2 Nov 22 10:37 Appartment.binfo
-rw-rw-r-- 1 larnold cobra 1.6K Nov 22 10:39 Appartment_cpu.csv
-rw-rw-r-- 1 larnold cobra   12 Nov 22 10:37 Appartment.end
-rw-r--r-- 1 larnold cobra 8.2K Nov 22 10:37 appartment.fds
-rw-rw-r-- 1 larnold cobra   25 Nov 22 10:37 Appartment_git.txt
-rw-rw-r-- 1 larnold cobra 185K Nov 22 10:39 Appartment_hrr.csv
-rw-rw-r-- 1 larnold cobra  79K Nov 22 10:39 Appartment.out
-rw-rw-r-- 1 larnold cobra    2 Nov 22 10:37 Appartment.sinfo
-rw-rw-r-- 1 larnold cobra  48K Nov 22 10:37 Appartment.smv
-rw-rw-r-- 1 larnold cobra 2.2K Nov 22 10:39 Appartment_steps.csv

########################################
# Back To Initial Directory
/beegfs/larnold/data/lukas/LectureFireSimulation/data/compartment/multiroom_01

########################################
# Tail -- Run Case -- compartment_steckler_test_013_10cm_001m
current time: Tue Nov 22 10:39:49 CET 2022
########################################
# Header -- Run Case -- compartment_steckler_test_013_10cm_001m
label: compartment_steckler_test_013_10cm_001m
current time: Tue Nov 22 11:23:13 CET 2022
user: larnold
machine: ana21001.pleiades.uni-wuppertal.de

########################################
# Directory Contents
total 72K
drwxrwxr-x 3 larnold cobra  185 Nov 22 10:37 .
drwxrwxr-x 6 larnold cobra  135 Nov 22 10:32 ..
-rw-r--r-- 1 larnold cobra 8.2K Nov 22 11:23 appartment.fds
-rw-rw-r-- 1 larnold cobra 1.5K Nov 22 10:33 case_download.sh
-rw-rw-r-- 1 larnold cobra 1.8K Nov 22 10:33 case_pack.sh
-rw-rw-r-- 1 larnold cobra 2.7K Nov 22 10:37 case_run.sh
-rw-rw-r-- 1 larnold cobra 2.6K Nov 22 10:33 case_run.sh~
-rw-rw-r-- 1 larnold cobra   39 Nov 22 10:33 label
-rw-rw-r-- 1 larnold cobra  27K Nov 22 11:23 log
drwxrwxr-x 2 larnold cobra 8.0K Nov 22 10:39 rundir

########################################
# FDS Version

 Fire Dynamics Simulator

 Current Date     : November 22, 2022  11:23:13
 Revision         : FDS6.7.9-0-gec52dee-HEAD
 Revision Date    : Sun Jun 26 14:36:40 2022 -0400
 Compiler         : ifort version 2021.2.0
 Compilation Date : Jun 30, 2022 15:04:40

 MPI Enabled;    Number of MPI Processes:       1
 OpenMP Disabled

 MPI version: 3.1
 MPI library version: Intel(R) MPI Library 2021.2 for Linux* OS

 Consult FDS Users Guide Chapter, Running FDS, for further instructions.

########################################
# FDS File Check
number of FDS input files found: 1
name of FDS input file: appartment.fds

########################################
# FDS File Contents
&HEAD CHID='Appartment' TITLE='This is an example case' /
&TIME T_END=10.0 /

&MISC BNDF_DEFAULT = F /
&BNDF QUANTITY = 'WALL TEMPERATURE' /



# ---------------------------------------
# Domain boundary
# ---------------------------------------

&VENT DB='YMAX', SURF_ID='OPEN' /

&VENT ID='OpenCeiling'
      SURF_ID='OPEN'
      XB=-1.5000,9.3000,4.3000,5.0000,2.2000,2.2000 /
&VENT ID='OpenLeft'
      SURF_ID='OPEN'
      XB=9.3000,9.3000,4.3000,5.0000,0.0000,2.2000 /
&VENT ID='OpenRight'
      SURF_ID='OPEN'
      XB=-1.5000,-1.5000,4.3000,5.0000,0.0000,2.2000 /



# ---------------------------------------
# Gas burner: methane
# ---------------------------------------
&SPEC ID = 'METHANE' /

&REAC FUEL               = 'METHANE',
      SOOT_YIELD         = 0.060,
      RADIATIVE_FRACTION = 0.02 /

# Burners:
&SURF ID         = 'BURNER',
      HRRPUA     = 1000.0,
      TMP_FRONT  = 250.0,
      COLOR      = 'RASPBERRY' /

&OBST ID       = 'BurnerBase',
      SURF_IDS = 'BURNER', 'Wall Lining', 'Wall Lining',
      XB = -0.20,0.20, -0.20,0.20, 0.00,0.20 /



# ---------------------------------------
# Surface definition (boundary conditions)
# ---------------------------------------

&SURF ID                      = 'Wall Lining',
      COLOR                   = 'BEIGE',
      DEFAULT                 = T,
      THICKNESS(1:1)          = 0.0254,
      MATL_ID(1,1:1)          = 'MARINITE',
      MATL_MASS_FRACTION(1,1) = 1.0 /


&MATL ID            = 'MARINITE'
      EMISSIVITY    = 0.9
      DENSITY       = 737.
      SPECIFIC_HEAT = 1.2
      CONDUCTIVITY  = 0.12 /



--- Computational domain  - 8 MESH

Cell Qty: 19008 | Size: 0.100·0.100·0.100m | Aspect: 1.0 | Poisson: No
&MESH ID='Domain' IJK=27,32,22 XB=-1.5000,1.2000,1.8000,5.0000,0.0000,2.2000 /
Cell Qty: 19008 | Size: 0.100·0.100·0.100m | Aspect: 1.0 | Poisson: No
&MESH ID='Domain.001' IJK=27,32,22 XB=1.2000,3.9000,1.8000,5.0000,0.0000,2.2000 /
Cell Qty: 19008 | Size: 0.100·0.100·0.100m | Aspect: 1.0 | Poisson: No
&MESH ID='Domain.002' IJK=27,32,22 XB=3.9000,6.6000,1.8000,5.0000,0.0000,2.2000 /
Cell Qty: 19008 | Size: 0.100·0.100·0.100m | Aspect: 1.0 | Poisson: No
&MESH ID='Domain.003' IJK=27,32,22 XB=6.6000,9.3000,1.8000,5.0000,0.0000,2.2000 /
Cell Qty: 19008 | Size: 0.100·0.100·0.100m | Aspect: 1.0 | Poisson: No
&MESH ID='Domain.004' IJK=27,32,22 XB=6.6000,9.3000,-1.4000,1.8000,0.0000,2.2000 /
Cell Qty: 19008 | Size: 0.100·0.100·0.100m | Aspect: 1.0 | Poisson: No
&MESH ID='Domain.005' IJK=27,32,22 XB=3.9000,6.6000,-1.4000,1.8000,0.0000,2.2000 /
Cell Qty: 19008 | Size: 0.100·0.100·0.100m | Aspect: 1.0 | Poisson: No
&MESH ID='Domain.006' IJK=27,32,22 XB=1.2000,3.9000,-1.4000,1.8000,0.0000,2.2000 /
Cell Qty: 19008 | Size: 0.100·0.100·0.100m | Aspect: 1.0 | Poisson: No
&MESH ID='Domain.007' IJK=27,32,22
      XB=-1.5000,1.2000,-1.4000,1.8000,0.0000,2.2000 /



--- Geometric namelists from Blender Collections

-- Blender Collection: <Obstacles>
&OBST ID='AppartmentDoor',
      XB=4.6000,5.1000,4.2000,4.3000,0.0000,2.2000 SURF_ID='Wall Lining' /
&OBST ID='AppartmentDoor.001',
      XB=5.9000,6.4000,4.2000,4.3000,0.0000,2.2000 SURF_ID='Wall Lining' /
&OBST ID='AppartmentDoor.002',
      XB=5.1000,5.9000,4.2000,4.3000,1.8000,2.2000 SURF_ID='Wall Lining' /

&OBST ID='Ceiling' SURF_ID='Wall Lining'
      XB=-1.5000,4.6000,-1.5000,4.3000,2.2000,2.3100 SURF_ID='Wall Lining' /
&OBST ID='Ceiling.001' SURF_ID='Wall Lining'
      XB=4.6000,9.4000,-1.5000,4.3000,2.2000,2.3100 SURF_ID='Wall Lining' /
&OBST ID='Floor', XB=-1.5000,9.4000,-1.5000,6.3100,-0.1100,0.0000
      SURF_ID='Wall Lining' /

&OBST ID='WallBack',
      XB=-1.5000,-1.4000,-1.4000,4.2000,0.0000,2.2000 SURF_ID='Wall Lining'
      BNDF_OBST=T /
&OBST ID='WallBack.001',
      XB=9.3000,9.4000,-1.5000,4.3000,0.0000,2.2000 SURF_ID='Wall Lining' /
&OBST ID='WallBathroom',
      XB=6.5000,7.5000,1.4000,1.5100,0.0000,2.2000 SURF_ID='Wall Lining' /
&OBST ID='WallBathroom.001',
      XB=8.3000,9.3200,1.4000,1.5100,0.0000,2.2000 SURF_ID='Wall Lining' /
&OBST ID='WallBathroom.002',
      XB=7.5000,8.3000,1.4000,1.5100,1.8000,2.2000 SURF_ID='Wall Lining' /
&OBST ID='WallCorridorKitchen',
      XB=6.4000,6.5000,0.4000,4.3000,0.0000,2.2000 SURF_ID='Wall Lining' /
&OBST ID='WallCorridorKitchen.001',
      XB=6.4000,6.5000,-1.5000,-0.4000,0.0000,2.2000 SURF_ID='Wall Lining' /
&OBST ID='WallCorridorKitchen.002',
      XB=6.4000,6.5000,-0.4000,0.4000,1.8000,2.2000 SURF_ID='Wall Lining' /
&OBST ID='WallCorridorLivingroom',
      XB=4.5000,4.6000,-1.5000,-0.4000,0.0000,2.2000 SURF_ID='Wall Lining'
      BNDF_OBST=T /
&OBST ID='WallCorridorLivingroom.001',
      XB=4.5000,4.6000,0.4000,4.3000,0.0000,2.2000 SURF_ID='Wall Lining'
      BNDF_OBST=T /
&OBST ID='WallCorridorLivingroom.002',
      XB=4.5000,4.6000,-0.4000,0.4000,1.8000,2.2000 SURF_ID='Wall Lining'
      BNDF_OBST=T /
&OBST ID='WallLeft',
      XB=-1.5000,4.5000,-1.5000,-1.4000,0.0000,2.2000 SURF_ID='Wall Lining' /
&OBST ID='WallLeft.001',
      XB=6.5000,9.3000,4.2000,4.3000,0.0000,2.2000 SURF_ID='Wall Lining' /
&OBST ID='WallLeft.002',
      XB=4.6000,6.4000,-1.5000,-1.4000,0.0000,2.2000 SURF_ID='Wall Lining' /
&OBST ID='WallRight',
      XB=-1.5000,4.5000,4.2000,4.3000,0.0000,2.2000 SURF_ID='Wall Lining' /
&OBST ID='WallRight.001',
      XB=6.5000,9.3000,-1.5000,-1.4000,0.0000,2.2000 SURF_ID='Wall Lining' /



# ---------------------------------------
# Analytics
# ---------------------------------------

&SLCF ID            = 'DoorLivingroomTempX',
      PBX           = 4.5500,
      QUANTITY      = 'TEMPERATURE',
      CELL_CENTERED = T /
&SLCF ID            = 'BurnerTempX',
      PBX           = 0.0000,
      QUANTITY      = 'TEMPERATURE'
      CELL_CENTERED = T /
&SLCF ID            = 'CorridorTempX'
      PBX           = 5.5000,
      QUANTITY      = 'TEMPERATURE',
      CELL_CENTERED = T /
&SLCF ID            = 'KitchenTempX'
      PBX           = 7.9000,
      QUANTITY      = 'TEMPERATURE',
      CELL_CENTERED = T /
&SLCF ID            = 'LivingRoomTempX'
      PBX           = 3.5000,
      QUANTITY      = 'TEMPERATURE',
      CELL_CENTERED = T /
&SLCF ID            = 'BurnerTempY_0'
      PBY           = -0.0000,
      QUANTITY      = 'TEMPERATURE',
      CELL_CENTERED = T /
&SLCF ID            = 'BurnerTempY_1'
      PBY           = -0.0000,
      QUANTITY      = 'TEMPERATURE',
      CELL_CENTERED = T /
&SLCF ID            = 'TempZ_1.0m'
      PBZ           = 1.0000,
      QUANTITY      = 'TEMPERATURE',
      CELL_CENTERED = T /
&SLCF ID            = 'TempZ_1.5m'
      PBZ           = 1.5000,
      QUANTITY      = 'TEMPERATURE',
      CELL_CENTERED = T /


&SLCF ID            = 'DoorLivingroomSootX',
      PBX           = 4.5500,
      QUANTITY      = 'soot',
      CELL_CENTERED = T /
&SLCF ID            = 'BurnerSootX',
      PBX           = 0.0000,
      QUANTITY      = 'soot'
      CELL_CENTERED = T /
&SLCF ID            = 'CorridorSootX'
      PBX           = 5.5000,
      QUANTITY      = 'soot',
      CELL_CENTERED = T /
&SLCF ID            = 'KitchenSootX'
      PBX           = 7.9000,
      QUANTITY      = 'soot',
      CELL_CENTERED = T /
&SLCF ID            = 'LivingRoomSootX'
      PBX           = 3.5000,
      QUANTITY      = 'soot',
      CELL_CENTERED = T /
&SLCF ID            = 'BurnerSootY_0'
      PBY           = -0.0000,
      QUANTITY      = 'soot',
      CELL_CENTERED = T /
&SLCF ID            = 'BurnerSootY_1'
      PBY           = -0.0000,
      QUANTITY      = 'soot',
      CELL_CENTERED = T /
&SLCF ID            = 'SootZ_1.0m'
      PBZ           = 1.0000,
      QUANTITY      = 'soot',
      CELL_CENTERED = T /
&SLCF ID            = 'SootZ_1.5m'
      PBZ           = 1.5000,
      QUANTITY      = 'soot',
      CELL_CENTERED = T /


&SLCF ID            = 'DoorLivingroomUVelX',
      PBX           = 4.5500,
      QUANTITY      = 'U-VELOCITY',
      CELL_CENTERED = T /

&SLCF ID            = 'DoorLivingroomDensityX',
      PBX           = 4.5500,
      QUANTITY      = 'DENSITY',
      SPEC_ID       = 'SOOT',
      CELL_CENTERED = T /

&TAIL /

########################################
# Prepare Run Directory 
ERROR: Run directory older than input file. Remove the run directory and retry. Abort.
Modification time run dir    : 2022-11-22 10:39:49
Modification time input file : 2022-11-22 11:23:06
########################################
# Header -- Run Case -- compartment_steckler_test_013_10cm_001m
label: compartment_steckler_test_013_10cm_001m
current time: Tue Nov 22 11:23:19 CET 2022
user: larnold
machine: ana21001.pleiades.uni-wuppertal.de

########################################
# Directory Contents
total 72K
drwxrwxr-x 2 larnold cobra  167 Nov 22 11:23 .
drwxrwxr-x 6 larnold cobra  135 Nov 22 10:32 ..
-rw-r--r-- 1 larnold cobra 8.2K Nov 22 11:23 appartment.fds
-rw-rw-r-- 1 larnold cobra 1.5K Nov 22 10:33 case_download.sh
-rw-rw-r-- 1 larnold cobra 1.8K Nov 22 10:33 case_pack.sh
-rw-rw-r-- 1 larnold cobra 2.7K Nov 22 10:37 case_run.sh
-rw-rw-r-- 1 larnold cobra 2.6K Nov 22 10:33 case_run.sh~
-rw-rw-r-- 1 larnold cobra   39 Nov 22 10:33 label
-rw-rw-r-- 1 larnold cobra  37K Nov 22 11:23 log

########################################
# FDS Version

 Fire Dynamics Simulator

 Current Date     : November 22, 2022  11:23:20
 Revision         : FDS6.7.9-0-gec52dee-HEAD
 Revision Date    : Sun Jun 26 14:36:40 2022 -0400
 Compiler         : ifort version 2021.2.0
 Compilation Date : Jun 30, 2022 15:04:40

 MPI Enabled;    Number of MPI Processes:       1
 OpenMP Disabled

 MPI version: 3.1
 MPI library version: Intel(R) MPI Library 2021.2 for Linux* OS

 Consult FDS Users Guide Chapter, Running FDS, for further instructions.

########################################
# FDS File Check
number of FDS input files found: 1
name of FDS input file: appartment.fds

########################################
# FDS File Contents
&HEAD CHID='Appartment' TITLE='This is an example case' /
&TIME T_END=10.0 /

&MISC BNDF_DEFAULT = F /
&BNDF QUANTITY = 'WALL TEMPERATURE' /



# ---------------------------------------
# Domain boundary
# ---------------------------------------

&VENT DB='YMAX', SURF_ID='OPEN' /

&VENT ID='OpenCeiling'
      SURF_ID='OPEN'
      XB=-1.5000,9.3000,4.3000,5.0000,2.2000,2.2000 /
&VENT ID='OpenLeft'
      SURF_ID='OPEN'
      XB=9.3000,9.3000,4.3000,5.0000,0.0000,2.2000 /
&VENT ID='OpenRight'
      SURF_ID='OPEN'
      XB=-1.5000,-1.5000,4.3000,5.0000,0.0000,2.2000 /



# ---------------------------------------
# Gas burner: methane
# ---------------------------------------
&SPEC ID = 'METHANE' /

&REAC FUEL               = 'METHANE',
      SOOT_YIELD         = 0.060,
      RADIATIVE_FRACTION = 0.02 /

# Burners:
&SURF ID         = 'BURNER',
      HRRPUA     = 1000.0,
      TMP_FRONT  = 250.0,
      COLOR      = 'RASPBERRY' /

&OBST ID       = 'BurnerBase',
      SURF_IDS = 'BURNER', 'Wall Lining', 'Wall Lining',
      XB = -0.20,0.20, -0.20,0.20, 0.00,0.20 /



# ---------------------------------------
# Surface definition (boundary conditions)
# ---------------------------------------

&SURF ID                      = 'Wall Lining',
      COLOR                   = 'BEIGE',
      DEFAULT                 = T,
      THICKNESS(1:1)          = 0.0254,
      MATL_ID(1,1:1)          = 'MARINITE',
      MATL_MASS_FRACTION(1,1) = 1.0 /


&MATL ID            = 'MARINITE'
      EMISSIVITY    = 0.9
      DENSITY       = 737.
      SPECIFIC_HEAT = 1.2
      CONDUCTIVITY  = 0.12 /



--- Computational domain  - 8 MESH

Cell Qty: 19008 | Size: 0.100·0.100·0.100m | Aspect: 1.0 | Poisson: No
&MESH ID='Domain' IJK=27,32,22 XB=-1.5000,1.2000,1.8000,5.0000,0.0000,2.2000 /
Cell Qty: 19008 | Size: 0.100·0.100·0.100m | Aspect: 1.0 | Poisson: No
&MESH ID='Domain.001' IJK=27,32,22 XB=1.2000,3.9000,1.8000,5.0000,0.0000,2.2000 /
Cell Qty: 19008 | Size: 0.100·0.100·0.100m | Aspect: 1.0 | Poisson: No
&MESH ID='Domain.002' IJK=27,32,22 XB=3.9000,6.6000,1.8000,5.0000,0.0000,2.2000 /
Cell Qty: 19008 | Size: 0.100·0.100·0.100m | Aspect: 1.0 | Poisson: No
&MESH ID='Domain.003' IJK=27,32,22 XB=6.6000,9.3000,1.8000,5.0000,0.0000,2.2000 /
Cell Qty: 19008 | Size: 0.100·0.100·0.100m | Aspect: 1.0 | Poisson: No
&MESH ID='Domain.004' IJK=27,32,22 XB=6.6000,9.3000,-1.4000,1.8000,0.0000,2.2000 /
Cell Qty: 19008 | Size: 0.100·0.100·0.100m | Aspect: 1.0 | Poisson: No
&MESH ID='Domain.005' IJK=27,32,22 XB=3.9000,6.6000,-1.4000,1.8000,0.0000,2.2000 /
Cell Qty: 19008 | Size: 0.100·0.100·0.100m | Aspect: 1.0 | Poisson: No
&MESH ID='Domain.006' IJK=27,32,22 XB=1.2000,3.9000,-1.4000,1.8000,0.0000,2.2000 /
Cell Qty: 19008 | Size: 0.100·0.100·0.100m | Aspect: 1.0 | Poisson: No
&MESH ID='Domain.007' IJK=27,32,22
      XB=-1.5000,1.2000,-1.4000,1.8000,0.0000,2.2000 /



--- Geometric namelists from Blender Collections

-- Blender Collection: <Obstacles>
&OBST ID='AppartmentDoor',
      XB=4.6000,5.1000,4.2000,4.3000,0.0000,2.2000 SURF_ID='Wall Lining' /
&OBST ID='AppartmentDoor.001',
      XB=5.9000,6.4000,4.2000,4.3000,0.0000,2.2000 SURF_ID='Wall Lining' /
&OBST ID='AppartmentDoor.002',
      XB=5.1000,5.9000,4.2000,4.3000,1.8000,2.2000 SURF_ID='Wall Lining' /

&OBST ID='Ceiling' SURF_ID='Wall Lining'
      XB=-1.5000,4.6000,-1.5000,4.3000,2.2000,2.3100 SURF_ID='Wall Lining' /
&OBST ID='Ceiling.001' SURF_ID='Wall Lining'
      XB=4.6000,9.4000,-1.5000,4.3000,2.2000,2.3100 SURF_ID='Wall Lining' /
&OBST ID='Floor', XB=-1.5000,9.4000,-1.5000,6.3100,-0.1100,0.0000
      SURF_ID='Wall Lining' /

&OBST ID='WallBack',
      XB=-1.5000,-1.4000,-1.4000,4.2000,0.0000,2.2000 SURF_ID='Wall Lining'
      BNDF_OBST=T /
&OBST ID='WallBack.001',
      XB=9.3000,9.4000,-1.5000,4.3000,0.0000,2.2000 SURF_ID='Wall Lining' /
&OBST ID='WallBathroom',
      XB=6.5000,7.5000,1.4000,1.5100,0.0000,2.2000 SURF_ID='Wall Lining' /
&OBST ID='WallBathroom.001',
      XB=8.3000,9.3200,1.4000,1.5100,0.0000,2.2000 SURF_ID='Wall Lining' /
&OBST ID='WallBathroom.002',
      XB=7.5000,8.3000,1.4000,1.5100,1.8000,2.2000 SURF_ID='Wall Lining' /
&OBST ID='WallCorridorKitchen',
      XB=6.4000,6.5000,0.4000,4.3000,0.0000,2.2000 SURF_ID='Wall Lining' /
&OBST ID='WallCorridorKitchen.001',
      XB=6.4000,6.5000,-1.5000,-0.4000,0.0000,2.2000 SURF_ID='Wall Lining' /
&OBST ID='WallCorridorKitchen.002',
      XB=6.4000,6.5000,-0.4000,0.4000,1.8000,2.2000 SURF_ID='Wall Lining' /
&OBST ID='WallCorridorLivingroom',
      XB=4.5000,4.6000,-1.5000,-0.4000,0.0000,2.2000 SURF_ID='Wall Lining'
      BNDF_OBST=T /
&OBST ID='WallCorridorLivingroom.001',
      XB=4.5000,4.6000,0.4000,4.3000,0.0000,2.2000 SURF_ID='Wall Lining'
      BNDF_OBST=T /
&OBST ID='WallCorridorLivingroom.002',
      XB=4.5000,4.6000,-0.4000,0.4000,1.8000,2.2000 SURF_ID='Wall Lining'
      BNDF_OBST=T /
&OBST ID='WallLeft',
      XB=-1.5000,4.5000,-1.5000,-1.4000,0.0000,2.2000 SURF_ID='Wall Lining' /
&OBST ID='WallLeft.001',
      XB=6.5000,9.3000,4.2000,4.3000,0.0000,2.2000 SURF_ID='Wall Lining' /
&OBST ID='WallLeft.002',
      XB=4.6000,6.4000,-1.5000,-1.4000,0.0000,2.2000 SURF_ID='Wall Lining' /
&OBST ID='WallRight',
      XB=-1.5000,4.5000,4.2000,4.3000,0.0000,2.2000 SURF_ID='Wall Lining' /
&OBST ID='WallRight.001',
      XB=6.5000,9.3000,-1.5000,-1.4000,0.0000,2.2000 SURF_ID='Wall Lining' /



# ---------------------------------------
# Analytics
# ---------------------------------------

&SLCF ID            = 'DoorLivingroomTempX',
      PBX           = 4.5500,
      QUANTITY      = 'TEMPERATURE',
      CELL_CENTERED = T /
&SLCF ID            = 'BurnerTempX',
      PBX           = 0.0000,
      QUANTITY      = 'TEMPERATURE'
      CELL_CENTERED = T /
&SLCF ID            = 'CorridorTempX'
      PBX           = 5.5000,
      QUANTITY      = 'TEMPERATURE',
      CELL_CENTERED = T /
&SLCF ID            = 'KitchenTempX'
      PBX           = 7.9000,
      QUANTITY      = 'TEMPERATURE',
      CELL_CENTERED = T /
&SLCF ID            = 'LivingRoomTempX'
      PBX           = 3.5000,
      QUANTITY      = 'TEMPERATURE',
      CELL_CENTERED = T /
&SLCF ID            = 'BurnerTempY_0'
      PBY           = -0.0000,
      QUANTITY      = 'TEMPERATURE',
      CELL_CENTERED = T /
&SLCF ID            = 'BurnerTempY_1'
      PBY           = -0.0000,
      QUANTITY      = 'TEMPERATURE',
      CELL_CENTERED = T /
&SLCF ID            = 'TempZ_1.0m'
      PBZ           = 1.0000,
      QUANTITY      = 'TEMPERATURE',
      CELL_CENTERED = T /
&SLCF ID            = 'TempZ_1.5m'
      PBZ           = 1.5000,
      QUANTITY      = 'TEMPERATURE',
      CELL_CENTERED = T /


&SLCF ID            = 'DoorLivingroomSootX',
      PBX           = 4.5500,
      QUANTITY      = 'soot',
      CELL_CENTERED = T /
&SLCF ID            = 'BurnerSootX',
      PBX           = 0.0000,
      QUANTITY      = 'soot'
      CELL_CENTERED = T /
&SLCF ID            = 'CorridorSootX'
      PBX           = 5.5000,
      QUANTITY      = 'soot',
      CELL_CENTERED = T /
&SLCF ID            = 'KitchenSootX'
      PBX           = 7.9000,
      QUANTITY      = 'soot',
      CELL_CENTERED = T /
&SLCF ID            = 'LivingRoomSootX'
      PBX           = 3.5000,
      QUANTITY      = 'soot',
      CELL_CENTERED = T /
&SLCF ID            = 'BurnerSootY_0'
      PBY           = -0.0000,
      QUANTITY      = 'soot',
      CELL_CENTERED = T /
&SLCF ID            = 'BurnerSootY_1'
      PBY           = -0.0000,
      QUANTITY      = 'soot',
      CELL_CENTERED = T /
&SLCF ID            = 'SootZ_1.0m'
      PBZ           = 1.0000,
      QUANTITY      = 'soot',
      CELL_CENTERED = T /
&SLCF ID            = 'SootZ_1.5m'
      PBZ           = 1.5000,
      QUANTITY      = 'soot',
      CELL_CENTERED = T /


&SLCF ID            = 'DoorLivingroomUVelX',
      PBX           = 4.5500,
      QUANTITY      = 'U-VELOCITY',
      CELL_CENTERED = T /

&SLCF ID            = 'DoorLivingroomDensityX',
      PBX           = 4.5500,
      QUANTITY      = 'DENSITY',
      SPEC_ID       = 'SOOT',
      CELL_CENTERED = T /

&TAIL /

########################################
# Prepare Run Directory 

########################################
# Execute FDS
FDSPRE:     mpiexec -np 8
FDSTHREADS: 1
FDS:        fds
FDSFILE:    appartment.fds

 Starting FDS ...

 MPI Process      0 started on ana21001.pleiades.uni-wuppertal.de
 MPI Process      4 started on ana21001.pleiades.uni-wuppertal.de
 MPI Process      3 started on ana21001.pleiades.uni-wuppertal.de
 MPI Process      7 started on ana21001.pleiades.uni-wuppertal.de
 MPI Process      6 started on ana21001.pleiades.uni-wuppertal.de
 MPI Process      2 started on ana21001.pleiades.uni-wuppertal.de
 MPI Process      1 started on ana21001.pleiades.uni-wuppertal.de
 MPI Process      5 started on ana21001.pleiades.uni-wuppertal.de

 Reading FDS input file ...


 Fire Dynamics Simulator

 Current Date     : November 22, 2022  11:23:22
 Revision         : FDS6.7.9-0-gec52dee-HEAD
 Revision Date    : Sun Jun 26 14:36:40 2022 -0400
 Compiler         : ifort version 2021.2.0
 Compilation Date : Jun 30, 2022 15:04:40

 MPI Enabled;    Number of MPI Processes:       8
 OpenMP Disabled

 MPI version: 3.1
 MPI library version: Intel(R) MPI Library 2021.2 for Linux* OS


 Job TITLE        : This is an example case
 Job ID string    : Appartment

 Time Step:      1, Simulation Time:      0.11 s
 Time Step:      2, Simulation Time:      0.21 s
 Time Step:      3, Simulation Time:      0.32 s
 Time Step:      4, Simulation Time:      0.43 s
 Time Step:      5, Simulation Time:      0.50 s
 Time Step:      6, Simulation Time:      0.57 s
 Time Step:      7, Simulation Time:      0.63 s
 Time Step:      8, Simulation Time:      0.67 s
 Time Step:      9, Simulation Time:      0.71 s
 Time Step:     10, Simulation Time:      0.76 s
 Time Step:     20, Simulation Time:      0.97 s
 Time Step:     30, Simulation Time:      1.09 s
 Time Step:     40, Simulation Time:      1.21 s
 Time Step:     50, Simulation Time:      1.32 s
 Time Step:     60, Simulation Time:      1.40 s
 Time Step:     70, Simulation Time:      1.49 s
 Time Step:     80, Simulation Time:      1.59 s
########################################
# Header -- Run Case -- compartment_steckler_test_013_10cm_001m
label: compartment_steckler_test_013_10cm_001m
current time: Tue Nov 22 11:27:12 CET 2022
user: larnold
machine: ana21001.pleiades.uni-wuppertal.de

########################################
# Directory Contents
total 80K
drwxrwxr-x 2 larnold cobra  167 Nov 22 11:26 .
drwxrwxr-x 6 larnold cobra  135 Nov 22 10:32 ..
-rw-r--r-- 1 larnold cobra  11K Nov 22 11:27 appartment.fds
-rw-rw-r-- 1 larnold cobra 1.5K Nov 22 10:33 case_download.sh
-rw-rw-r-- 1 larnold cobra 1.8K Nov 22 10:33 case_pack.sh
-rw-rw-r-- 1 larnold cobra 2.7K Nov 22 10:37 case_run.sh
-rw-rw-r-- 1 larnold cobra 2.6K Nov 22 10:33 case_run.sh~
-rw-rw-r-- 1 larnold cobra   39 Nov 22 10:33 label
-rw-rw-r-- 1 larnold cobra  48K Nov 22 11:23 log

########################################
# FDS Version

 Fire Dynamics Simulator

 Current Date     : November 22, 2022  11:27:13
 Revision         : FDS6.7.9-0-gec52dee-HEAD
 Revision Date    : Sun Jun 26 14:36:40 2022 -0400
 Compiler         : ifort version 2021.2.0
 Compilation Date : Jun 30, 2022 15:04:40

 MPI Enabled;    Number of MPI Processes:       1
 OpenMP Disabled

 MPI version: 3.1
 MPI library version: Intel(R) MPI Library 2021.2 for Linux* OS

 Consult FDS Users Guide Chapter, Running FDS, for further instructions.

########################################
# FDS File Check
number of FDS input files found: 1
name of FDS input file: appartment.fds

########################################
# FDS File Contents
&HEAD CHID='Appartment' TITLE='This is an example case' /
&TIME T_END=300.0 /

&MISC BNDF_DEFAULT = F /
&BNDF QUANTITY = 'WALL TEMPERATURE' /



# ---------------------------------------
# Domain boundary
# ---------------------------------------

&VENT DB='YMAX', SURF_ID='OPEN' /

&VENT ID='OpenCeiling'
      SURF_ID='OPEN'
      XB=-1.5000,9.3000,4.3000,5.0000,2.2000,2.2000 /
&VENT ID='OpenLeft'
      SURF_ID='OPEN'
      XB=9.3000,9.3000,4.3000,5.0000,0.0000,2.2000 /
&VENT ID='OpenRight'
      SURF_ID='OPEN'
      XB=-1.5000,-1.5000,4.3000,5.0000,0.0000,2.2000 /



# ---------------------------------------
# Gas burner: methane
# ---------------------------------------
&SPEC ID = 'METHANE' /

&REAC FUEL               = 'METHANE',
      SOOT_YIELD         = 0.060,
      RADIATIVE_FRACTION = 0.02 /

# Burners:
&SURF ID         = 'BURNER',
      HRRPUA     = 1000.0,
      TMP_FRONT  = 250.0,
      COLOR      = 'RASPBERRY' /

&OBST ID       = 'BurnerBase',
      SURF_IDS = 'BURNER', 'Wall Lining', 'Wall Lining',
      XB = -0.20,0.20, -0.20,0.20, 0.00,0.20 /



# ---------------------------------------
# Surface definition (boundary conditions)
# ---------------------------------------

&SURF ID                      = 'Wall Lining',
      COLOR                   = 'BEIGE',
      DEFAULT                 = T,
      THICKNESS(1:1)          = 0.0254,
      MATL_ID(1,1:1)          = 'MARINITE',
      MATL_MASS_FRACTION(1,1) = 1.0 /


&MATL ID            = 'MARINITE'
      EMISSIVITY    = 0.9
      DENSITY       = 737.
      SPECIFIC_HEAT = 1.2
      CONDUCTIVITY  = 0.12 /



--- Computational domain  - 8 MESH

Cell Qty: 19008 | Size: 0.100·0.100·0.100m | Aspect: 1.0 | Poisson: No
&MESH ID='Domain' IJK=27,32,22 XB=-1.5000,1.2000,1.8000,5.0000,0.0000,2.2000 /
Cell Qty: 19008 | Size: 0.100·0.100·0.100m | Aspect: 1.0 | Poisson: No
&MESH ID='Domain.001' IJK=27,32,22 XB=1.2000,3.9000,1.8000,5.0000,0.0000,2.2000 /
Cell Qty: 19008 | Size: 0.100·0.100·0.100m | Aspect: 1.0 | Poisson: No
&MESH ID='Domain.002' IJK=27,32,22 XB=3.9000,6.6000,1.8000,5.0000,0.0000,2.2000 /
Cell Qty: 19008 | Size: 0.100·0.100·0.100m | Aspect: 1.0 | Poisson: No
&MESH ID='Domain.003' IJK=27,32,22 XB=6.6000,9.3000,1.8000,5.0000,0.0000,2.2000 /
Cell Qty: 19008 | Size: 0.100·0.100·0.100m | Aspect: 1.0 | Poisson: No
&MESH ID='Domain.004' IJK=27,32,22 XB=6.6000,9.3000,-1.4000,1.8000,0.0000,2.2000 /
Cell Qty: 19008 | Size: 0.100·0.100·0.100m | Aspect: 1.0 | Poisson: No
&MESH ID='Domain.005' IJK=27,32,22 XB=3.9000,6.6000,-1.4000,1.8000,0.0000,2.2000 /
Cell Qty: 19008 | Size: 0.100·0.100·0.100m | Aspect: 1.0 | Poisson: No
&MESH ID='Domain.006' IJK=27,32,22 XB=1.2000,3.9000,-1.4000,1.8000,0.0000,2.2000 /
Cell Qty: 19008 | Size: 0.100·0.100·0.100m | Aspect: 1.0 | Poisson: No
&MESH ID='Domain.007' IJK=27,32,22
      XB=-1.5000,1.2000,-1.4000,1.8000,0.0000,2.2000 /



--- Geometric namelists from Blender Collections

-- Blender Collection: <Obstacles>
&OBST ID='AppartmentDoor',
      XB=4.6000,5.1000,4.2000,4.3000,0.0000,2.2000 SURF_ID='Wall Lining' /
&OBST ID='AppartmentDoor.001',
      XB=5.9000,6.4000,4.2000,4.3000,0.0000,2.2000 SURF_ID='Wall Lining' /
&OBST ID='AppartmentDoor.002',
      XB=5.1000,5.9000,4.2000,4.3000,1.8000,2.2000 SURF_ID='Wall Lining' /

&OBST ID='Ceiling' SURF_ID='Wall Lining'
      XB=-1.5000,4.6000,-1.5000,4.3000,2.2000,2.3100 SURF_ID='Wall Lining' /
&OBST ID='Ceiling.001' SURF_ID='Wall Lining'
      XB=4.6000,9.4000,-1.5000,4.3000,2.2000,2.3100 SURF_ID='Wall Lining' /
&OBST ID='Floor', XB=-1.5000,9.4000,-1.5000,6.3100,-0.1100,0.0000
      SURF_ID='Wall Lining' /

&OBST ID='WallBack',
      XB=-1.5000,-1.4000,-1.4000,4.2000,0.0000,2.2000 SURF_ID='Wall Lining'
      BNDF_OBST=T /
&OBST ID='WallBack.001',
      XB=9.3000,9.4000,-1.5000,4.3000,0.0000,2.2000 SURF_ID='Wall Lining' /
&OBST ID='WallBathroom',
      XB=6.5000,7.5000,1.4000,1.5100,0.0000,2.2000 SURF_ID='Wall Lining' /
&OBST ID='WallBathroom.001',
      XB=8.3000,9.3200,1.4000,1.5100,0.0000,2.2000 SURF_ID='Wall Lining' /
&OBST ID='WallBathroom.002',
      XB=7.5000,8.3000,1.4000,1.5100,1.8000,2.2000 SURF_ID='Wall Lining' /
&OBST ID='WallCorridorKitchen',
      XB=6.4000,6.5000,0.4000,4.3000,0.0000,2.2000 SURF_ID='Wall Lining' /
&OBST ID='WallCorridorKitchen.001',
      XB=6.4000,6.5000,-1.5000,-0.4000,0.0000,2.2000 SURF_ID='Wall Lining' /
&OBST ID='WallCorridorKitchen.002',
      XB=6.4000,6.5000,-0.4000,0.4000,1.8000,2.2000 SURF_ID='Wall Lining' /
&OBST ID='WallCorridorLivingroom',
      XB=4.5000,4.6000,-1.5000,-0.4000,0.0000,2.2000 SURF_ID='Wall Lining'
      BNDF_OBST=T /
&OBST ID='WallCorridorLivingroom.001',
      XB=4.5000,4.6000,0.4000,4.3000,0.0000,2.2000 SURF_ID='Wall Lining'
      BNDF_OBST=T /
&OBST ID='WallCorridorLivingroom.002',
      XB=4.5000,4.6000,-0.4000,0.4000,1.8000,2.2000 SURF_ID='Wall Lining'
      BNDF_OBST=T /
&OBST ID='WallLeft',
      XB=-1.5000,4.5000,-1.5000,-1.4000,0.0000,2.2000 SURF_ID='Wall Lining' /
&OBST ID='WallLeft.001',
      XB=6.5000,9.3000,4.2000,4.3000,0.0000,2.2000 SURF_ID='Wall Lining' /
&OBST ID='WallLeft.002',
      XB=4.6000,6.4000,-1.5000,-1.4000,0.0000,2.2000 SURF_ID='Wall Lining' /
&OBST ID='WallRight',
      XB=-1.5000,4.5000,4.2000,4.3000,0.0000,2.2000 SURF_ID='Wall Lining' /
&OBST ID='WallRight.001',
      XB=6.5000,9.3000,-1.5000,-1.4000,0.0000,2.2000 SURF_ID='Wall Lining' /



# ---------------------------------------
# Analytics
# ---------------------------------------

&SLCF ID            = 'DoorLivingroomTempX',
      PBX           = 4.5500,
      QUANTITY      = 'TEMPERATURE',
      CELL_CENTERED = T /
&SLCF ID            = 'BurnerTempX',
      PBX           = 0.0000,
      QUANTITY      = 'TEMPERATURE'
      CELL_CENTERED = T /
&SLCF ID            = 'CorridorTempX'
      PBX           = 5.5000,
      QUANTITY      = 'TEMPERATURE',
      CELL_CENTERED = T /
&SLCF ID            = 'KitchenTempX'
      PBX           = 7.9000,
      QUANTITY      = 'TEMPERATURE',
      CELL_CENTERED = T /
&SLCF ID            = 'LivingRoomTempX'
      PBX           = 3.5000,
      QUANTITY      = 'TEMPERATURE',
      CELL_CENTERED = T /
&SLCF ID            = 'BurnerTempY_0'
      PBY           = -0.0000,
      QUANTITY      = 'TEMPERATURE',
      CELL_CENTERED = T /
&SLCF ID            = 'BurnerTempY_1'
      PBY           = -0.0000,
      QUANTITY      = 'TEMPERATURE',
      CELL_CENTERED = T /
&SLCF ID            = 'TempZ_1.0m'
      PBZ           = 1.0000,
      QUANTITY      = 'TEMPERATURE',
      CELL_CENTERED = T /
&SLCF ID            = 'TempZ_1.5m'
      PBZ           = 1.5000,
      QUANTITY      = 'TEMPERATURE',
      CELL_CENTERED = T /
&SLCF ID            = 'TempZ_2.0m'
      PBZ           = 2.0000,
      QUANTITY      = 'TEMPERATURE',
      CELL_CENTERED = T /


&SLCF ID            = 'DoorLivingroomSootX',
      PBX           = 4.5500,
      QUANTITY      = 'soot',
      CELL_CENTERED = T /
&SLCF ID            = 'BurnerSootX',
      PBX           = 0.0000,
      QUANTITY      = 'soot'
      CELL_CENTERED = T /
&SLCF ID            = 'CorridorSootX'
      PBX           = 5.5000,
      QUANTITY      = 'soot',
      CELL_CENTERED = T /
&SLCF ID            = 'KitchenSootX'
      PBX           = 7.9000,
      QUANTITY      = 'soot',
      CELL_CENTERED = T /
&SLCF ID            = 'LivingRoomSootX'
      PBX           = 3.5000,
      QUANTITY      = 'soot',
      CELL_CENTERED = T /
&SLCF ID            = 'BurnerSootY_0'
      PBY           = -0.0000,
      QUANTITY      = 'soot',
      CELL_CENTERED = T /
&SLCF ID            = 'BurnerSootY_1'
      PBY           = -0.0000,
      QUANTITY      = 'soot',
      CELL_CENTERED = T /
&SLCF ID            = 'SootZ_1.0m'
      PBZ           = 1.0000,
      QUANTITY      = 'soot',
      CELL_CENTERED = T /
&SLCF ID            = 'SootZ_1.5m'
      PBZ           = 1.5000,
      QUANTITY      = 'soot',
      CELL_CENTERED = T /
&SLCF ID            = 'SootZ_2.0m'
      PBZ           = 2.0000,
      QUANTITY      = 'soot',
      CELL_CENTERED = T /

&SLCF ID            = 'DoorLivingroomSootDensityX',
      PBX           = 4.5500,
      QUANTITY      = 'DENSITY',
      SPEC_ID       = 'SOOT',
      CELL_CENTERED = T /
&SLCF ID            = 'BurnerSootDensityX',
      PBX           = 0.0000,
      QUANTITY      = 'DENSITY'
      SPEC_ID       = 'SOOT',      
      CELL_CENTERED = T /
&SLCF ID            = 'CorridorSootDensityX'
      PBX           = 5.5000,
      QUANTITY      = 'DENSITY',
      SPEC_ID       = 'SOOT',
      CELL_CENTERED = T /
&SLCF ID            = 'KitchenSootDensityX'
      PBX           = 7.9000,
      QUANTITY      = 'DENSITY',
      SPEC_ID       = 'SOOT',
      CELL_CENTERED = T /
&SLCF ID            = 'LivingRoomSootDensityX'
      PBX           = 3.5000,
      QUANTITY      = 'DENSITY',
      SPEC_ID       = 'SOOT',
      CELL_CENTERED = T /
&SLCF ID            = 'BurnerSootDensityY_0'
      PBY           = -0.0000,
      QUANTITY      = 'DENSITY',
      SPEC_ID       = 'SOOT',
      CELL_CENTERED = T /
&SLCF ID            = 'BurnerSootDensityY_1'
      PBY           = -0.0000,
      QUANTITY      = 'DENSITY',
      SPEC_ID       = 'SOOT',
      CELL_CENTERED = T /
&SLCF ID            = 'SootDensityZ_1.0m'
      PBZ           = 1.0000,
      QUANTITY      = 'DENSITY',
      SPEC_ID       = 'SOOT',
      CELL_CENTERED = T /
&SLCF ID            = 'SootDensityZ_1.5m'
      PBZ           = 1.5000,
      QUANTITY      = 'DENSITY',
      SPEC_ID       = 'SOOT',
      CELL_CENTERED = T /
&SLCF ID            = 'SootDensityZ_2.0m'
      PBZ           = 2.0000,
      QUANTITY      = 'DENSITY',
      SPEC_ID       = 'SOOT',
      CELL_CENTERED = T /


&SLCF ID            = 'DoorLivingroomUVelX',
      PBX           = 4.5500,
      QUANTITY      = 'U-VELOCITY',
      CELL_CENTERED = T /

&SLCF ID            = 'DoorLivingroomDensityX',
      PBX           = 4.5500,
      QUANTITY      = 'DENSITY',
      CELL_CENTERED = T /

&TAIL /

########################################
# Prepare Run Directory 

########################################
# Execute FDS
FDSPRE:     mpiexec -np 8
FDSTHREADS: 1
FDS:        fds
FDSFILE:    appartment.fds

 Starting FDS ...

 MPI Process      5 started on ana21001.pleiades.uni-wuppertal.de
 MPI Process      1 started on ana21001.pleiades.uni-wuppertal.de
 MPI Process      7 started on ana21001.pleiades.uni-wuppertal.de
 MPI Process      0 started on ana21001.pleiades.uni-wuppertal.de
 MPI Process      3 started on ana21001.pleiades.uni-wuppertal.de
 MPI Process      2 started on ana21001.pleiades.uni-wuppertal.de
 MPI Process      4 started on ana21001.pleiades.uni-wuppertal.de
 MPI Process      6 started on ana21001.pleiades.uni-wuppertal.de

 Reading FDS input file ...


 Fire Dynamics Simulator

 Current Date     : November 22, 2022  11:27:14
 Revision         : FDS6.7.9-0-gec52dee-HEAD
 Revision Date    : Sun Jun 26 14:36:40 2022 -0400
 Compiler         : ifort version 2021.2.0
 Compilation Date : Jun 30, 2022 15:04:40

 MPI Enabled;    Number of MPI Processes:       8
 OpenMP Disabled

 MPI version: 3.1
 MPI library version: Intel(R) MPI Library 2021.2 for Linux* OS


 Job TITLE        : This is an example case
 Job ID string    : Appartment

 Time Step:      1, Simulation Time:      0.11 s
 Time Step:      2, Simulation Time:      0.21 s
 Time Step:      3, Simulation Time:      0.32 s
 Time Step:      4, Simulation Time:      0.43 s
 Time Step:      5, Simulation Time:      0.50 s
 Time Step:      6, Simulation Time:      0.57 s
 Time Step:      7, Simulation Time:      0.63 s
 Time Step:      8, Simulation Time:      0.67 s
 Time Step:      9, Simulation Time:      0.71 s
 Time Step:     10, Simulation Time:      0.76 s
 Time Step:     20, Simulation Time:      0.97 s
 Time Step:     30, Simulation Time:      1.09 s
 Time Step:     40, Simulation Time:      1.21 s
 Time Step:     50, Simulation Time:      1.32 s
 Time Step:     60, Simulation Time:      1.40 s
 Time Step:     70, Simulation Time:      1.49 s
 Time Step:     80, Simulation Time:      1.59 s
 Time Step:     90, Simulation Time:      1.68 s
 Time Step:    100, Simulation Time:      1.76 s
 Time Step:    200, Simulation Time:      2.78 s
 Time Step:    300, Simulation Time:      3.78 s
 Time Step:    400, Simulation Time:      4.75 s
 Time Step:    500, Simulation Time:      5.89 s
 Time Step:    600, Simulation Time:      6.86 s
 Time Step:    700, Simulation Time:      7.89 s
 Time Step:    800, Simulation Time:      8.91 s
 Time Step:    900, Simulation Time:      9.91 s
 Time Step:   1000, Simulation Time:     10.94 s
 Time Step:   1100, Simulation Time:     11.96 s
 Time Step:   1200, Simulation Time:     13.01 s
 Time Step:   1300, Simulation Time:     14.02 s
 Time Step:   1400, Simulation Time:     15.03 s
 Time Step:   1500, Simulation Time:     16.02 s
 Time Step:   1600, Simulation Time:     17.06 s
 Time Step:   1700, Simulation Time:     18.13 s
 Time Step:   1800, Simulation Time:     19.14 s
 Time Step:   1900, Simulation Time:     20.18 s
 Time Step:   2000, Simulation Time:     21.18 s
 Time Step:   2100, Simulation Time:     22.20 s
 Time Step:   2200, Simulation Time:     23.18 s
 Time Step:   2300, Simulation Time:     24.19 s
 Time Step:   2400, Simulation Time:     25.23 s
 Time Step:   2500, Simulation Time:     26.26 s
 Time Step:   2600, Simulation Time:     27.29 s
 Time Step:   2700, Simulation Time:     28.30 s
 Time Step:   2800, Simulation Time:     29.34 s
 Time Step:   2900, Simulation Time:     30.42 s
 Time Step:   3000, Simulation Time:     31.38 s
 Time Step:   3100, Simulation Time:     32.45 s
 Time Step:   3200, Simulation Time:     33.49 s
 Time Step:   3300, Simulation Time:     34.59 s
 Time Step:   3400, Simulation Time:     35.62 s
 Time Step:   3500, Simulation Time:     36.68 s
 Time Step:   3600, Simulation Time:     37.70 s
 Time Step:   3700, Simulation Time:     38.74 s
 Time Step:   3800, Simulation Time:     39.85 s
 Time Step:   3900, Simulation Time:     40.88 s
 Time Step:   4000, Simulation Time:     41.92 s
 Time Step:   4100, Simulation Time:     43.01 s
 Time Step:   4200, Simulation Time:     44.10 s
 Time Step:   4300, Simulation Time:     45.21 s
 Time Step:   4400, Simulation Time:     46.24 s
 Time Step:   4500, Simulation Time:     47.30 s
 Time Step:   4600, Simulation Time:     48.40 s
 Time Step:   4700, Simulation Time:     49.45 s
 Time Step:   4800, Simulation Time:     50.63 s
 Time Step:   4900, Simulation Time:     51.77 s
########################################
# Header -- Run Case -- compartment_steckler_test_013_10cm_001m
label: compartment_steckler_test_013_10cm_001m
current time: Tue Nov 22 11:37:47 CET 2022
user: larnold
machine: ana21001.pleiades.uni-wuppertal.de

########################################
# Directory Contents
total 96K
drwxrwxr-x 2 larnold cobra  167 Nov 22 11:37 .
drwxrwxr-x 6 larnold cobra  135 Nov 22 10:32 ..
-rw-r--r-- 1 larnold cobra 9.6K Nov 22 11:37 appartment.fds
-rw-rw-r-- 1 larnold cobra 1.5K Nov 22 10:33 case_download.sh
-rw-rw-r-- 1 larnold cobra 1.8K Nov 22 10:33 case_pack.sh
-rw-rw-r-- 1 larnold cobra 2.7K Nov 22 10:37 case_run.sh
-rw-rw-r-- 1 larnold cobra 2.6K Nov 22 10:33 case_run.sh~
-rw-rw-r-- 1 larnold cobra   39 Nov 22 10:33 label
-rw-rw-r-- 1 larnold cobra  64K Nov 22 11:37 log

########################################
# FDS Version

 Fire Dynamics Simulator

 Current Date     : November 22, 2022  11:37:47
 Revision         : FDS6.7.9-0-gec52dee-HEAD
 Revision Date    : Sun Jun 26 14:36:40 2022 -0400
 Compiler         : ifort version 2021.2.0
 Compilation Date : Jun 30, 2022 15:04:40

 MPI Enabled;    Number of MPI Processes:       1
 OpenMP Disabled

 MPI version: 3.1
 MPI library version: Intel(R) MPI Library 2021.2 for Linux* OS

 Consult FDS Users Guide Chapter, Running FDS, for further instructions.

########################################
# FDS File Check
number of FDS input files found: 1
name of FDS input file: appartment.fds

########################################
# FDS File Contents
&HEAD CHID='Appartment' TITLE='This is an example case' /
&TIME T_END=300.0 /

&MISC BNDF_DEFAULT = F /
&BNDF QUANTITY = 'WALL TEMPERATURE' /



# ---------------------------------------
# Domain boundary
# ---------------------------------------

&VENT DB='YMAX', SURF_ID='OPEN' /

&VENT ID='OpenCeiling'
      SURF_ID='OPEN'
      XB=-1.5000,9.3000,4.3000,5.0000,2.2000,2.2000 /
&VENT ID='OpenLeft'
      SURF_ID='OPEN'
      XB=9.3000,9.3000,4.3000,5.0000,0.0000,2.2000 /
&VENT ID='OpenRight'
      SURF_ID='OPEN'
      XB=-1.5000,-1.5000,4.3000,5.0000,0.0000,2.2000 /



# ---------------------------------------
# Gas burner: methane
# ---------------------------------------
&SPEC ID = 'METHANE' /

&REAC FUEL               = 'METHANE',
      SOOT_YIELD         = 0.060,
      RADIATIVE_FRACTION = 0.02 /

# Burners:
&SURF ID         = 'BURNER',
      HRRPUA     = 1000.0,
      TMP_FRONT  = 250.0,
      COLOR      = 'RASPBERRY' /

&OBST ID       = 'BurnerBase',
      SURF_IDS = 'BURNER', 'Wall Lining', 'Wall Lining',
      XB = -0.20,0.20, -0.20,0.20, 0.00,0.20 /



# ---------------------------------------
# Surface definition (boundary conditions)
# ---------------------------------------

&SURF ID                      = 'Wall Lining',
      COLOR                   = 'BEIGE',
      DEFAULT                 = T,
      THICKNESS(1:1)          = 0.0254,
      MATL_ID(1,1:1)          = 'MARINITE',
      MATL_MASS_FRACTION(1,1) = 1.0 /


&MATL ID            = 'MARINITE'
      EMISSIVITY    = 0.9
      DENSITY       = 737.
      SPECIFIC_HEAT = 1.2
      CONDUCTIVITY  = 0.12 /



--- Computational domain  - 8 MESH

Cell Qty: 19008 | Size: 0.100·0.100·0.100m | Aspect: 1.0 | Poisson: No
&MESH ID='Domain' IJK=27,32,22 XB=-1.5000,1.2000,1.8000,5.0000,0.0000,2.2000 /
Cell Qty: 19008 | Size: 0.100·0.100·0.100m | Aspect: 1.0 | Poisson: No
&MESH ID='Domain.001' IJK=27,32,22 XB=1.2000,3.9000,1.8000,5.0000,0.0000,2.2000 /
Cell Qty: 19008 | Size: 0.100·0.100·0.100m | Aspect: 1.0 | Poisson: No
&MESH ID='Domain.002' IJK=27,32,22 XB=3.9000,6.6000,1.8000,5.0000,0.0000,2.2000 /
Cell Qty: 19008 | Size: 0.100·0.100·0.100m | Aspect: 1.0 | Poisson: No
&MESH ID='Domain.003' IJK=27,32,22 XB=6.6000,9.3000,1.8000,5.0000,0.0000,2.2000 /
Cell Qty: 19008 | Size: 0.100·0.100·0.100m | Aspect: 1.0 | Poisson: No
&MESH ID='Domain.004' IJK=27,32,22 XB=6.6000,9.3000,-1.4000,1.8000,0.0000,2.2000 /
Cell Qty: 19008 | Size: 0.100·0.100·0.100m | Aspect: 1.0 | Poisson: No
&MESH ID='Domain.005' IJK=27,32,22 XB=3.9000,6.6000,-1.4000,1.8000,0.0000,2.2000 /
Cell Qty: 19008 | Size: 0.100·0.100·0.100m | Aspect: 1.0 | Poisson: No
&MESH ID='Domain.006' IJK=27,32,22 XB=1.2000,3.9000,-1.4000,1.8000,0.0000,2.2000 /
Cell Qty: 19008 | Size: 0.100·0.100·0.100m | Aspect: 1.0 | Poisson: No
&MESH ID='Domain.007' IJK=27,32,22
      XB=-1.5000,1.2000,-1.4000,1.8000,0.0000,2.2000 /



--- Geometric namelists from Blender Collections

-- Blender Collection: <Obstacles>
&OBST ID='AppartmentDoor',
      XB=4.6000,5.1000,4.2000,4.3000,0.0000,2.2000 SURF_ID='Wall Lining' /
&OBST ID='AppartmentDoor.001',
      XB=5.9000,6.4000,4.2000,4.3000,0.0000,2.2000 SURF_ID='Wall Lining' /
&OBST ID='AppartmentDoor.002',
      XB=5.1000,5.9000,4.2000,4.3000,1.8000,2.2000 SURF_ID='Wall Lining' /

&OBST ID='Ceiling' SURF_ID='Wall Lining'
      XB=-1.5000,4.6000,-1.5000,4.3000,2.2000,2.3100 SURF_ID='Wall Lining' /
&OBST ID='Ceiling.001' SURF_ID='Wall Lining'
      XB=4.6000,9.4000,-1.5000,4.3000,2.2000,2.3100 SURF_ID='Wall Lining' /
&OBST ID='Floor', XB=-1.5000,9.4000,-1.5000,6.3100,-0.1100,0.0000
      SURF_ID='Wall Lining' /

&OBST ID='WallBack',
      XB=-1.5000,-1.4000,-1.4000,4.2000,0.0000,2.2000 SURF_ID='Wall Lining'
      BNDF_OBST=T /
&OBST ID='WallBack.001',
      XB=9.3000,9.4000,-1.5000,4.3000,0.0000,2.2000 SURF_ID='Wall Lining' /
&OBST ID='WallBathroom',
      XB=6.5000,7.5000,1.4000,1.5100,0.0000,2.2000 SURF_ID='Wall Lining' /
&OBST ID='WallBathroom.001',
      XB=8.3000,9.3200,1.4000,1.5100,0.0000,2.2000 SURF_ID='Wall Lining' /
&OBST ID='WallBathroom.002',
      XB=7.5000,8.3000,1.4000,1.5100,1.8000,2.2000 SURF_ID='Wall Lining' /
&OBST ID='WallCorridorKitchen',
      XB=6.4000,6.5000,0.4000,4.3000,0.0000,2.2000 SURF_ID='Wall Lining' /
&OBST ID='WallCorridorKitchen.001',
      XB=6.4000,6.5000,-1.5000,-0.4000,0.0000,2.2000 SURF_ID='Wall Lining' /
&OBST ID='WallCorridorKitchen.002',
      XB=6.4000,6.5000,-0.4000,0.4000,1.8000,2.2000 SURF_ID='Wall Lining' /
&OBST ID='WallCorridorLivingroom',
      XB=4.5000,4.6000,-1.5000,-0.4000,0.0000,2.2000 SURF_ID='Wall Lining'
      BNDF_OBST=T /
&OBST ID='WallCorridorLivingroom.001',
      XB=4.5000,4.6000,0.4000,4.3000,0.0000,2.2000 SURF_ID='Wall Lining'
      BNDF_OBST=T /
&OBST ID='WallCorridorLivingroom.002',
      XB=4.5000,4.6000,-0.4000,0.4000,1.8000,2.2000 SURF_ID='Wall Lining'
      BNDF_OBST=T /
&OBST ID='WallLeft',
      XB=-1.5000,4.5000,-1.5000,-1.4000,0.0000,2.2000 SURF_ID='Wall Lining' /
&OBST ID='WallLeft.001',
      XB=6.5000,9.3000,4.2000,4.3000,0.0000,2.2000 SURF_ID='Wall Lining' /
&OBST ID='WallLeft.002',
      XB=4.6000,6.4000,-1.5000,-1.4000,0.0000,2.2000 SURF_ID='Wall Lining' /
&OBST ID='WallRight',
      XB=-1.5000,4.5000,4.2000,4.3000,0.0000,2.2000 SURF_ID='Wall Lining' /
&OBST ID='WallRight.001',
      XB=6.5000,9.3000,-1.5000,-1.4000,0.0000,2.2000 SURF_ID='Wall Lining' /



# ---------------------------------------
# Analytics
# ---------------------------------------

&SLCF ID            = 'DoorLivingroomTempX',
      PBX           = 4.5500,
      QUANTITY      = 'TEMPERATURE',
      CELL_CENTERED = T /
&SLCF ID            = 'BurnerTempX',
      PBX           = 0.0000,
      QUANTITY      = 'TEMPERATURE'
      CELL_CENTERED = T /
&SLCF ID            = 'CorridorTempX'
      PBX           = 5.5000,
      QUANTITY      = 'TEMPERATURE',
      CELL_CENTERED = T /
&SLCF ID            = 'KitchenTempX'
      PBX           = 7.9000,
      QUANTITY      = 'TEMPERATURE',
      CELL_CENTERED = T /
&SLCF ID            = 'LivingRoomTempX'
      PBX           = 3.5000,
      QUANTITY      = 'TEMPERATURE',
      CELL_CENTERED = T /
&SLCF ID            = 'BurnerTempY'
      PBY           = 0.0000,
      QUANTITY      = 'TEMPERATURE',
      CELL_CENTERED = T /
&SLCF ID            = 'TempZ_1.0m'
      PBZ           = 1.0000,
      QUANTITY      = 'TEMPERATURE',
      CELL_CENTERED = T /
&SLCF ID            = 'TempZ_1.5m'
      PBZ           = 1.5000,
      QUANTITY      = 'TEMPERATURE',
      CELL_CENTERED = T /
&SLCF ID            = 'TempZ_2.0m'
      PBZ           = 2.0000,
      QUANTITY      = 'TEMPERATURE',
      CELL_CENTERED = T /


&SLCF ID            = 'DoorLivingroomSootX',
      PBX           = 4.5500,
      QUANTITY      = 'soot',
      CELL_CENTERED = T /
&SLCF ID            = 'BurnerSootX',
      PBX           = 0.0000,
      QUANTITY      = 'soot'
      CELL_CENTERED = T /
&SLCF ID            = 'CorridorSootX'
      PBX           = 5.5000,
      QUANTITY      = 'soot',
      CELL_CENTERED = T /
&SLCF ID            = 'KitchenSootX'
      PBX           = 7.9000,
      QUANTITY      = 'soot',
      CELL_CENTERED = T /
&SLCF ID            = 'LivingRoomSootX'
      PBX           = 3.5000,
      QUANTITY      = 'soot',
      CELL_CENTERED = T /
&SLCF ID            = 'BurnerSootY'
      PBY           = 0.0000,
      QUANTITY      = 'soot',
      CELL_CENTERED = T /
&SLCF ID            = 'SootZ_1.0m'
      PBZ           = 1.0000,
      QUANTITY      = 'soot',
      CELL_CENTERED = T /
&SLCF ID            = 'SootZ_1.5m'
      PBZ           = 1.5000,
      QUANTITY      = 'soot',
      CELL_CENTERED = T /
&SLCF ID            = 'SootZ_2.0m'
      PBZ           = 2.0000,
      QUANTITY      = 'soot',
      CELL_CENTERED = T /

&SLCF ID            = 'DoorLivingroomSootDensityX',
      PBX           = 4.5500,
      QUANTITY      = 'DENSITY',
      SPEC_ID       = 'SOOT',
      CELL_CENTERED = T /
&SLCF ID            = 'BurnerSootDensityX',
      PBX           = 0.0000,
      QUANTITY      = 'DENSITY'
      SPEC_ID       = 'SOOT',      
      CELL_CENTERED = T /
&SLCF ID            = 'CorridorSootDensityX'
      PBX           = 5.5000,
      QUANTITY      = 'DENSITY',
      SPEC_ID       = 'SOOT',
      CELL_CENTERED = T /
&SLCF ID            = 'KitchenSootDensityX'
      PBX           = 7.9000,
      QUANTITY      = 'DENSITY',
      SPEC_ID       = 'SOOT',
      CELL_CENTERED = T /
&SLCF ID            = 'LivingRoomSootDensityX'
      PBX           = 3.5000,
      QUANTITY      = 'DENSITY',
      SPEC_ID       = 'SOOT',
      CELL_CENTERED = T /
&SLCF ID            = 'BurnerSootDensityY'
      PBY           = 0.0000,
      QUANTITY      = 'DENSITY',
      SPEC_ID       = 'SOOT',
      CELL_CENTERED = T /
&SLCF ID            = 'SootDensityZ_1.0m'
      PBZ           = 1.0000,
      QUANTITY      = 'DENSITY',
      SPEC_ID       = 'SOOT',
      CELL_CENTERED = T /
&SLCF ID            = 'SootDensityZ_1.5m'
      PBZ           = 1.5000,
      QUANTITY      = 'DENSITY',
      SPEC_ID       = 'SOOT',
      CELL_CENTERED = T /
&SLCF ID            = 'SootDensityZ_2.0m'
      PBZ           = 2.0000,
      QUANTITY      = 'DENSITY',
      SPEC_ID       = 'SOOT',
      CELL_CENTERED = T /


&SLCF ID            = 'DoorLivingroomUVelX',
      PBX           = 4.5500,
      QUANTITY      = 'U-VELOCITY',
      CELL_CENTERED = T /

&SLCF ID            = 'DoorLivingroomDensityX',
      PBX           = 4.5500,
      QUANTITY      = 'DENSITY',
      CELL_CENTERED = T /

&TAIL /

########################################
# Prepare Run Directory 

########################################
# Execute FDS
FDSPRE:     mpiexec -np 8
FDSTHREADS: 1
FDS:        fds
FDSFILE:    appartment.fds

 Starting FDS ...

 MPI Process      7 started on ana21001.pleiades.uni-wuppertal.de
 MPI Process      3 started on ana21001.pleiades.uni-wuppertal.de
 MPI Process      1 started on ana21001.pleiades.uni-wuppertal.de
 MPI Process      5 started on ana21001.pleiades.uni-wuppertal.de
 MPI Process      0 started on ana21001.pleiades.uni-wuppertal.de
 MPI Process      4 started on ana21001.pleiades.uni-wuppertal.de
 MPI Process      2 started on ana21001.pleiades.uni-wuppertal.de
 MPI Process      6 started on ana21001.pleiades.uni-wuppertal.de

 Reading FDS input file ...


 Fire Dynamics Simulator

 Current Date     : November 22, 2022  11:37:48
 Revision         : FDS6.7.9-0-gec52dee-HEAD
 Revision Date    : Sun Jun 26 14:36:40 2022 -0400
 Compiler         : ifort version 2021.2.0
 Compilation Date : Jun 30, 2022 15:04:40

 MPI Enabled;    Number of MPI Processes:       8
 OpenMP Disabled

 MPI version: 3.1
 MPI library version: Intel(R) MPI Library 2021.2 for Linux* OS


 Job TITLE        : This is an example case
 Job ID string    : Appartment

 Time Step:      1, Simulation Time:      0.11 s
 Time Step:      2, Simulation Time:      0.21 s
 Time Step:      3, Simulation Time:      0.32 s
 Time Step:      4, Simulation Time:      0.43 s
 Time Step:      5, Simulation Time:      0.50 s
 Time Step:      6, Simulation Time:      0.57 s
 Time Step:      7, Simulation Time:      0.63 s
 Time Step:      8, Simulation Time:      0.67 s
 Time Step:      9, Simulation Time:      0.71 s
 Time Step:     10, Simulation Time:      0.76 s
 Time Step:     20, Simulation Time:      0.97 s
 Time Step:     30, Simulation Time:      1.09 s
 Time Step:     40, Simulation Time:      1.21 s
 Time Step:     50, Simulation Time:      1.32 s
 Time Step:     60, Simulation Time:      1.40 s
 Time Step:     70, Simulation Time:      1.49 s
 Time Step:     80, Simulation Time:      1.59 s
 Time Step:     90, Simulation Time:      1.68 s
 Time Step:    100, Simulation Time:      1.76 s
 Time Step:    200, Simulation Time:      2.78 s
 Time Step:    300, Simulation Time:      3.78 s
 Time Step:    400, Simulation Time:      4.75 s
 Time Step:    500, Simulation Time:      5.89 s
 Time Step:    600, Simulation Time:      6.86 s
 Time Step:    700, Simulation Time:      7.89 s
 Time Step:    800, Simulation Time:      8.91 s
 Time Step:    900, Simulation Time:      9.91 s
 Time Step:   1000, Simulation Time:     10.94 s
 Time Step:   1100, Simulation Time:     11.96 s
 Time Step:   1200, Simulation Time:     13.01 s
 Time Step:   1300, Simulation Time:     14.02 s
 Time Step:   1400, Simulation Time:     15.03 s
 Time Step:   1500, Simulation Time:     16.02 s
 Time Step:   1600, Simulation Time:     17.06 s
 Time Step:   1700, Simulation Time:     18.13 s
 Time Step:   1800, Simulation Time:     19.14 s
 Time Step:   1900, Simulation Time:     20.18 s
 Time Step:   2000, Simulation Time:     21.18 s
 Time Step:   2100, Simulation Time:     22.20 s
 Time Step:   2200, Simulation Time:     23.18 s
 Time Step:   2300, Simulation Time:     24.19 s
 Time Step:   2400, Simulation Time:     25.23 s
 Time Step:   2500, Simulation Time:     26.26 s
 Time Step:   2600, Simulation Time:     27.29 s
 Time Step:   2700, Simulation Time:     28.30 s
 Time Step:   2800, Simulation Time:     29.34 s
[...]
 Time Step:  16700, Simulation Time:    188.79 s
 Time Step:  16800, Simulation Time:    189.98 s
 Time Step:  16900, Simulation Time:    191.19 s
 Time Step:  17000, Simulation Time:    192.29 s
 Time Step:  17100, Simulation Time:    193.42 s
 Time Step:  17200, Simulation Time:    194.52 s
 Time Step:  17300, Simulation Time:    195.70 s
 Time Step:  17400, Simulation Time:    196.86 s
 Time Step:  17500, Simulation Time:    197.98 s
 Time Step:  17600, Simulation Time:    199.15 s
 Time Step:  17700, Simulation Time:    200.31 s
 Time Step:  17800, Simulation Time:    201.50 s
 Time Step:  17900, Simulation Time:    202.66 s
 Time Step:  18000, Simulation Time:    203.78 s
 Time Step:  18100, Simulation Time:    204.82 s
 Time Step:  18200, Simulation Time:    205.94 s
 Time Step:  18300, Simulation Time:    207.07 s
 Time Step:  18400, Simulation Time:    208.20 s
 Time Step:  18500, Simulation Time:    209.44 s
 Time Step:  18600, Simulation Time:    210.61 s
 Time Step:  18700, Simulation Time:    211.81 s
 Time Step:  18800, Simulation Time:    212.92 s
 Time Step:  18900, Simulation Time:    214.14 s
 Time Step:  19000, Simulation Time:    215.31 s
 Time Step:  19100, Simulation Time:    216.45 s
 Time Step:  19200, Simulation Time:    217.63 s
 Time Step:  19300, Simulation Time:    218.82 s
 Time Step:  19400, Simulation Time:    219.97 s
 Time Step:  19500, Simulation Time:    221.10 s
 Time Step:  19600, Simulation Time:    222.25 s
 Time Step:  19700, Simulation Time:    223.44 s
 Time Step:  19800, Simulation Time:    224.64 s
 Time Step:  19900, Simulation Time:    225.84 s
 Time Step:  20000, Simulation Time:    227.05 s
 Time Step:  20100, Simulation Time:    228.20 s
 Time Step:  20200, Simulation Time:    229.33 s
 Time Step:  20300, Simulation Time:    230.48 s
 Time Step:  20400, Simulation Time:    231.64 s
 Time Step:  20500, Simulation Time:    232.84 s
 Time Step:  20600, Simulation Time:    234.01 s
 Time Step:  20700, Simulation Time:    235.23 s
 Time Step:  20800, Simulation Time:    236.43 s
 Time Step:  20900, Simulation Time:    237.58 s
 Time Step:  21000, Simulation Time:    238.72 s
 Time Step:  21100, Simulation Time:    239.91 s
 Time Step:  21200, Simulation Time:    241.07 s
 Time Step:  21300, Simulation Time:    242.17 s
 Time Step:  21400, Simulation Time:    243.23 s
 Time Step:  21500, Simulation Time:    244.41 s
 Time Step:  21600, Simulation Time:    245.56 s
 Time Step:  21700, Simulation Time:    246.74 s
 Time Step:  21800, Simulation Time:    247.88 s
 Time Step:  21900, Simulation Time:    249.07 s
 Time Step:  22000, Simulation Time:    250.26 s
 Time Step:  22100, Simulation Time:    251.44 s
 Time Step:  22200, Simulation Time:    252.61 s
 Time Step:  22300, Simulation Time:    253.84 s
 Time Step:  22400, Simulation Time:    255.00 s
 Time Step:  22500, Simulation Time:    256.19 s
 Time Step:  22600, Simulation Time:    257.37 s
 Time Step:  22700, Simulation Time:    258.54 s
 Time Step:  22800, Simulation Time:    259.73 s
 Time Step:  22900, Simulation Time:    260.89 s
 Time Step:  23000, Simulation Time:    262.04 s
 Time Step:  23100, Simulation Time:    263.22 s
 Time Step:  23200, Simulation Time:    264.37 s
 Time Step:  23300, Simulation Time:    265.50 s
 Time Step:  23400, Simulation Time:    266.71 s
 Time Step:  23500, Simulation Time:    267.89 s
 Time Step:  23600, Simulation Time:    269.08 s
 Time Step:  23700, Simulation Time:    270.23 s
 Time Step:  23800, Simulation Time:    271.36 s
 Time Step:  23900, Simulation Time:    272.57 s
 Time Step:  24000, Simulation Time:    273.70 s
 Time Step:  24100, Simulation Time:    274.93 s
 Time Step:  24200, Simulation Time:    276.10 s
 Time Step:  24300, Simulation Time:    277.28 s
 Time Step:  24400, Simulation Time:    278.35 s
 Time Step:  24500, Simulation Time:    279.50 s
 Time Step:  24600, Simulation Time:    280.68 s
 Time Step:  24700, Simulation Time:    281.82 s
 Time Step:  24800, Simulation Time:    282.94 s
 Time Step:  24900, Simulation Time:    284.09 s
 Time Step:  25000, Simulation Time:    285.29 s
 Time Step:  25100, Simulation Time:    286.43 s
 Time Step:  25200, Simulation Time:    287.60 s
 Time Step:  25300, Simulation Time:    288.71 s
 Time Step:  25400, Simulation Time:    289.85 s
 Time Step:  25500, Simulation Time:    290.99 s
 Time Step:  25600, Simulation Time:    292.13 s
 Time Step:  25700, Simulation Time:    293.31 s
 Time Step:  25800, Simulation Time:    294.49 s
 Time Step:  25900, Simulation Time:    295.67 s
 Time Step:  26000, Simulation Time:    296.86 s
 Time Step:  26100, Simulation Time:    298.06 s
 Time Step:  26200, Simulation Time:    299.24 s
 Time Step:  26270, Simulation Time:    300.00 s

STOP: FDS completed successfully (CHID: Appartment)

########################################
# Run Directory Contents
total 549M
drwxrwxr-x 2 larnold cobra  12K Nov 22 13:20 .
drwxrwxr-x 3 larnold cobra  185 Nov 22 12:26 ..
-rw-rw-r-- 1 larnold cobra 2.3M Nov 22 13:20 Appartment_1_1.bf
-rw-rw-r-- 1 larnold cobra  42K Nov 22 13:20 Appartment_1_1.bf.bnd
-rw-rw-r-- 1 larnold cobra 9.5M Nov 22 13:20 Appartment_1_1.s3d
-rw-rw-r-- 1 larnold cobra  54K Nov 22 13:20 Appartment_1_1.s3d.sz
-rw-rw-r-- 1 larnold cobra 3.0M Nov 22 13:20 Appartment_1_1.sf
-rw-rw-r-- 1 larnold cobra  42K Nov 22 13:20 Appartment_1_1.sf.bnd
-rw-rw-r-- 1 larnold cobra 282K Nov 22 13:20 Appartment_1_2.s3d
-rw-rw-r-- 1 larnold cobra  54K Nov 22 13:20 Appartment_1_2.s3d.sz
-rw-rw-r-- 1 larnold cobra 3.6M Nov 22 13:20 Appartment_1_2.sf
-rw-rw-r-- 1 larnold cobra  42K Nov 22 13:20 Appartment_1_2.sf.bnd
-rw-rw-r-- 1 larnold cobra 7.2M Nov 22 13:20 Appartment_1_3.s3d
-rw-rw-r-- 1 larnold cobra  54K Nov 22 13:20 Appartment_1_3.s3d.sz
-rw-rw-r-- 1 larnold cobra 3.6M Nov 22 13:20 Appartment_1_3.sf
-rw-rw-r-- 1 larnold cobra  42K Nov 22 13:20 Appartment_1_3.sf.bnd
-rw-rw-r-- 1 larnold cobra 3.6M Nov 22 13:20 Appartment_1_4.sf
-rw-rw-r-- 1 larnold cobra  42K Nov 22 13:20 Appartment_1_4.sf.bnd
-rw-rw-r-- 1 larnold cobra 3.0M Nov 22 13:20 Appartment_1_5.sf
-rw-rw-r-- 1 larnold cobra  42K Nov 22 13:20 Appartment_1_5.sf.bnd
-rw-rw-r-- 1 larnold cobra 3.6M Nov 22 13:20 Appartment_1_6.sf
-rw-rw-r-- 1 larnold cobra  42K Nov 22 13:20 Appartment_1_6.sf.bnd
-rw-rw-r-- 1 larnold cobra 3.6M Nov 22 13:20 Appartment_1_7.sf
-rw-rw-r-- 1 larnold cobra  42K Nov 22 13:20 Appartment_1_7.sf.bnd
-rw-rw-r-- 1 larnold cobra 3.6M Nov 22 13:20 Appartment_1_8.sf
-rw-rw-r-- 1 larnold cobra  42K Nov 22 13:20 Appartment_1_8.sf.bnd
-rw-rw-r-- 1 larnold cobra 8.7M Nov 22 13:20 Appartment_2_1.s3d
-rw-rw-r-- 1 larnold cobra  54K Nov 22 13:20 Appartment_2_1.s3d.sz
-rw-rw-r-- 1 larnold cobra 3.0M Nov 22 13:20 Appartment_2_1.sf
-rw-rw-r-- 1 larnold cobra  42K Nov 22 13:20 Appartment_2_1.sf.bnd
-rw-rw-r-- 1 larnold cobra 282K Nov 22 13:20 Appartment_2_2.s3d
-rw-rw-r-- 1 larnold cobra  54K Nov 22 13:20 Appartment_2_2.s3d.sz
-rw-rw-r-- 1 larnold cobra 3.6M Nov 22 13:20 Appartment_2_2.sf
-rw-rw-r-- 1 larnold cobra  42K Nov 22 13:20 Appartment_2_2.sf.bnd
-rw-rw-r-- 1 larnold cobra 5.8M Nov 22 13:20 Appartment_2_3.s3d
-rw-rw-r-- 1 larnold cobra  54K Nov 22 13:20 Appartment_2_3.s3d.sz
-rw-rw-r-- 1 larnold cobra 3.6M Nov 22 13:20 Appartment_2_3.sf
-rw-rw-r-- 1 larnold cobra  42K Nov 22 13:20 Appartment_2_3.sf.bnd
-rw-rw-r-- 1 larnold cobra 3.6M Nov 22 13:20 Appartment_2_4.sf
-rw-rw-r-- 1 larnold cobra  42K Nov 22 13:20 Appartment_2_4.sf.bnd
-rw-rw-r-- 1 larnold cobra 3.0M Nov 22 13:20 Appartment_2_5.sf
-rw-rw-r-- 1 larnold cobra  42K Nov 22 13:20 Appartment_2_5.sf.bnd
-rw-rw-r-- 1 larnold cobra 3.6M Nov 22 13:20 Appartment_2_6.sf
-rw-rw-r-- 1 larnold cobra  42K Nov 22 13:20 Appartment_2_6.sf.bnd
-rw-rw-r-- 1 larnold cobra 3.6M Nov 22 13:20 Appartment_2_7.sf
-rw-rw-r-- 1 larnold cobra  42K Nov 22 13:20 Appartment_2_7.sf.bnd
-rw-rw-r-- 1 larnold cobra 3.6M Nov 22 13:20 Appartment_2_8.sf
-rw-rw-r-- 1 larnold cobra  42K Nov 22 13:20 Appartment_2_8.sf.bnd
-rw-rw-r-- 1 larnold cobra 3.6M Nov 22 13:20 Appartment_3_10.sf
-rw-rw-r-- 1 larnold cobra  42K Nov 22 13:20 Appartment_3_10.sf.bnd
-rw-rw-r-- 1 larnold cobra 3.0M Nov 22 13:20 Appartment_3_11.sf
-rw-rw-r-- 1 larnold cobra  42K Nov 22 13:20 Appartment_3_11.sf.bnd
-rw-rw-r-- 1 larnold cobra 3.0M Nov 22 13:20 Appartment_3_12.sf
-rw-rw-r-- 1 larnold cobra  42K Nov 22 13:20 Appartment_3_12.sf.bnd
-rw-rw-r-- 1 larnold cobra 4.8M Nov 22 13:20 Appartment_3_1.bf
-rw-rw-r-- 1 larnold cobra  42K Nov 22 13:20 Appartment_3_1.bf.bnd
-rw-rw-r-- 1 larnold cobra  13M Nov 22 13:20 Appartment_3_1.s3d
-rw-rw-r-- 1 larnold cobra  54K Nov 22 13:20 Appartment_3_1.s3d.sz
-rw-rw-r-- 1 larnold cobra 3.0M Nov 22 13:20 Appartment_3_1.sf
-rw-rw-r-- 1 larnold cobra  42K Nov 22 13:20 Appartment_3_1.sf.bnd
-rw-rw-r-- 1 larnold cobra 282K Nov 22 13:20 Appartment_3_2.s3d
-rw-rw-r-- 1 larnold cobra  54K Nov 22 13:20 Appartment_3_2.s3d.sz
-rw-rw-r-- 1 larnold cobra 3.0M Nov 22 13:20 Appartment_3_2.sf
-rw-rw-r-- 1 larnold cobra  42K Nov 22 13:20 Appartment_3_2.sf.bnd
-rw-rw-r-- 1 larnold cobra 8.2M Nov 22 13:20 Appartment_3_3.s3d
-rw-rw-r-- 1 larnold cobra  54K Nov 22 13:20 Appartment_3_3.s3d.sz
-rw-rw-r-- 1 larnold cobra 3.6M Nov 22 13:20 Appartment_3_3.sf
-rw-rw-r-- 1 larnold cobra  42K Nov 22 13:20 Appartment_3_3.sf.bnd
-rw-rw-r-- 1 larnold cobra 3.6M Nov 22 13:20 Appartment_3_4.sf
-rw-rw-r-- 1 larnold cobra  42K Nov 22 13:20 Appartment_3_4.sf.bnd
-rw-rw-r-- 1 larnold cobra 3.6M Nov 22 13:20 Appartment_3_5.sf
-rw-rw-r-- 1 larnold cobra  42K Nov 22 13:20 Appartment_3_5.sf.bnd
-rw-rw-r-- 1 larnold cobra 3.0M Nov 22 13:20 Appartment_3_6.sf
-rw-rw-r-- 1 larnold cobra  42K Nov 22 13:20 Appartment_3_6.sf.bnd
-rw-rw-r-- 1 larnold cobra 3.0M Nov 22 13:20 Appartment_3_7.sf
-rw-rw-r-- 1 larnold cobra  42K Nov 22 13:20 Appartment_3_7.sf.bnd
-rw-rw-r-- 1 larnold cobra 3.6M Nov 22 13:20 Appartment_3_8.sf
-rw-rw-r-- 1 larnold cobra  42K Nov 22 13:20 Appartment_3_8.sf.bnd
-rw-rw-r-- 1 larnold cobra 3.6M Nov 22 13:20 Appartment_3_9.sf
-rw-rw-r-- 1 larnold cobra  42K Nov 22 13:20 Appartment_3_9.sf.bnd
-rw-rw-r-- 1 larnold cobra 8.3M Nov 22 13:20 Appartment_4_1.s3d
-rw-rw-r-- 1 larnold cobra  54K Nov 22 13:20 Appartment_4_1.s3d.sz
-rw-rw-r-- 1 larnold cobra 3.0M Nov 22 13:20 Appartment_4_1.sf
-rw-rw-r-- 1 larnold cobra  42K Nov 22 13:20 Appartment_4_1.sf.bnd
-rw-rw-r-- 1 larnold cobra 282K Nov 22 13:20 Appartment_4_2.s3d
-rw-rw-r-- 1 larnold cobra  54K Nov 22 13:20 Appartment_4_2.s3d.sz
-rw-rw-r-- 1 larnold cobra 3.6M Nov 22 13:20 Appartment_4_2.sf
-rw-rw-r-- 1 larnold cobra  42K Nov 22 13:20 Appartment_4_2.sf.bnd
-rw-rw-r-- 1 larnold cobra 2.6M Nov 22 13:20 Appartment_4_3.s3d
-rw-rw-r-- 1 larnold cobra  54K Nov 22 13:20 Appartment_4_3.s3d.sz
-rw-rw-r-- 1 larnold cobra 3.6M Nov 22 13:20 Appartment_4_3.sf
-rw-rw-r-- 1 larnold cobra  42K Nov 22 13:20 Appartment_4_3.sf.bnd
-rw-rw-r-- 1 larnold cobra 3.6M Nov 22 13:20 Appartment_4_4.sf
-rw-rw-r-- 1 larnold cobra  42K Nov 22 13:20 Appartment_4_4.sf.bnd
-rw-rw-r-- 1 larnold cobra 3.0M Nov 22 13:20 Appartment_4_5.sf
-rw-rw-r-- 1 larnold cobra  42K Nov 22 13:20 Appartment_4_5.sf.bnd
-rw-rw-r-- 1 larnold cobra 3.6M Nov 22 13:20 Appartment_4_6.sf
-rw-rw-r-- 1 larnold cobra  42K Nov 22 13:20 Appartment_4_6.sf.bnd
-rw-rw-r-- 1 larnold cobra 3.6M Nov 22 13:20 Appartment_4_7.sf
-rw-rw-r-- 1 larnold cobra  42K Nov 22 13:20 Appartment_4_7.sf.bnd
-rw-rw-r-- 1 larnold cobra 3.6M Nov 22 13:20 Appartment_4_8.sf
-rw-rw-r-- 1 larnold cobra  42K Nov 22 13:20 Appartment_4_8.sf.bnd
-rw-rw-r-- 1 larnold cobra 3.6M Nov 22 13:20 Appartment_5_10.sf
-rw-rw-r-- 1 larnold cobra  42K Nov 22 13:20 Appartment_5_10.sf.bnd
-rw-rw-r-- 1 larnold cobra  11M Nov 22 13:20 Appartment_5_1.s3d
-rw-rw-r-- 1 larnold cobra  54K Nov 22 13:20 Appartment_5_1.s3d.sz
-rw-rw-r-- 1 larnold cobra 3.0M Nov 22 13:20 Appartment_5_1.sf
-rw-rw-r-- 1 larnold cobra  42K Nov 22 13:20 Appartment_5_1.sf.bnd
-rw-rw-r-- 1 larnold cobra 282K Nov 22 13:20 Appartment_5_2.s3d
-rw-rw-r-- 1 larnold cobra  54K Nov 22 13:20 Appartment_5_2.s3d.sz
-rw-rw-r-- 1 larnold cobra 2.5M Nov 22 13:20 Appartment_5_2.sf
-rw-rw-r-- 1 larnold cobra  42K Nov 22 13:20 Appartment_5_2.sf.bnd
-rw-rw-r-- 1 larnold cobra 4.6M Nov 22 13:20 Appartment_5_3.s3d
-rw-rw-r-- 1 larnold cobra  54K Nov 22 13:20 Appartment_5_3.s3d.sz
-rw-rw-r-- 1 larnold cobra 3.6M Nov 22 13:20 Appartment_5_3.sf
-rw-rw-r-- 1 larnold cobra  42K Nov 22 13:20 Appartment_5_3.sf.bnd
-rw-rw-r-- 1 larnold cobra 3.6M Nov 22 13:20 Appartment_5_4.sf
-rw-rw-r-- 1 larnold cobra  42K Nov 22 13:20 Appartment_5_4.sf.bnd
-rw-rw-r-- 1 larnold cobra 3.6M Nov 22 13:20 Appartment_5_5.sf
-rw-rw-r-- 1 larnold cobra  42K Nov 22 13:20 Appartment_5_5.sf.bnd
-rw-rw-r-- 1 larnold cobra 3.0M Nov 22 13:20 Appartment_5_6.sf
-rw-rw-r-- 1 larnold cobra  42K Nov 22 13:20 Appartment_5_6.sf.bnd
-rw-rw-r-- 1 larnold cobra 2.5M Nov 22 13:20 Appartment_5_7.sf
-rw-rw-r-- 1 larnold cobra  42K Nov 22 13:20 Appartment_5_7.sf.bnd
-rw-rw-r-- 1 larnold cobra 3.6M Nov 22 13:20 Appartment_5_8.sf
-rw-rw-r-- 1 larnold cobra  42K Nov 22 13:20 Appartment_5_8.sf.bnd
-rw-rw-r-- 1 larnold cobra 3.6M Nov 22 13:20 Appartment_5_9.sf
-rw-rw-r-- 1 larnold cobra  42K Nov 22 13:20 Appartment_5_9.sf.bnd
-rw-rw-r-- 1 larnold cobra 3.6M Nov 22 13:20 Appartment_6_10.sf
-rw-rw-r-- 1 larnold cobra  42K Nov 22 13:20 Appartment_6_10.sf.bnd
-rw-rw-r-- 1 larnold cobra 3.6M Nov 22 13:20 Appartment_6_11.sf
-rw-rw-r-- 1 larnold cobra  42K Nov 22 13:20 Appartment_6_11.sf.bnd
-rw-rw-r-- 1 larnold cobra 3.6M Nov 22 13:20 Appartment_6_12.sf
-rw-rw-r-- 1 larnold cobra  42K Nov 22 13:20 Appartment_6_12.sf.bnd
-rw-rw-r-- 1 larnold cobra 3.0M Nov 22 13:20 Appartment_6_13.sf
-rw-rw-r-- 1 larnold cobra  42K Nov 22 13:20 Appartment_6_13.sf.bnd
-rw-rw-r-- 1 larnold cobra 3.0M Nov 22 13:20 Appartment_6_14.sf
-rw-rw-r-- 1 larnold cobra  42K Nov 22 13:20 Appartment_6_14.sf.bnd
-rw-rw-r-- 1 larnold cobra 5.5M Nov 22 13:20 Appartment_6_1.bf
-rw-rw-r-- 1 larnold cobra  42K Nov 22 13:20 Appartment_6_1.bf.bnd
-rw-rw-r-- 1 larnold cobra  15M Nov 22 13:20 Appartment_6_1.s3d
-rw-rw-r-- 1 larnold cobra  54K Nov 22 13:20 Appartment_6_1.s3d.sz
-rw-rw-r-- 1 larnold cobra 3.0M Nov 22 13:20 Appartment_6_1.sf
-rw-rw-r-- 1 larnold cobra  42K Nov 22 13:20 Appartment_6_1.sf.bnd
-rw-rw-r-- 1 larnold cobra 282K Nov 22 13:20 Appartment_6_2.s3d
-rw-rw-r-- 1 larnold cobra  54K Nov 22 13:20 Appartment_6_2.s3d.sz
-rw-rw-r-- 1 larnold cobra 3.0M Nov 22 13:20 Appartment_6_2.sf
-rw-rw-r-- 1 larnold cobra  42K Nov 22 13:20 Appartment_6_2.sf.bnd
-rw-rw-r-- 1 larnold cobra  11M Nov 22 13:20 Appartment_6_3.s3d
-rw-rw-r-- 1 larnold cobra  54K Nov 22 13:20 Appartment_6_3.s3d.sz
-rw-rw-r-- 1 larnold cobra 2.5M Nov 22 13:20 Appartment_6_3.sf
-rw-rw-r-- 1 larnold cobra  42K Nov 22 13:20 Appartment_6_3.sf.bnd
-rw-rw-r-- 1 larnold cobra 3.6M Nov 22 13:20 Appartment_6_4.sf
-rw-rw-r-- 1 larnold cobra  42K Nov 22 13:20 Appartment_6_4.sf.bnd
-rw-rw-r-- 1 larnold cobra 3.6M Nov 22 13:20 Appartment_6_5.sf
-rw-rw-r-- 1 larnold cobra  42K Nov 22 13:20 Appartment_6_5.sf.bnd
-rw-rw-r-- 1 larnold cobra 3.6M Nov 22 13:20 Appartment_6_6.sf
-rw-rw-r-- 1 larnold cobra  42K Nov 22 13:20 Appartment_6_6.sf.bnd
-rw-rw-r-- 1 larnold cobra 3.0M Nov 22 13:20 Appartment_6_7.sf
-rw-rw-r-- 1 larnold cobra  42K Nov 22 13:20 Appartment_6_7.sf.bnd
-rw-rw-r-- 1 larnold cobra 3.0M Nov 22 13:20 Appartment_6_8.sf
-rw-rw-r-- 1 larnold cobra  42K Nov 22 13:20 Appartment_6_8.sf.bnd
-rw-rw-r-- 1 larnold cobra 2.5M Nov 22 13:20 Appartment_6_9.sf
-rw-rw-r-- 1 larnold cobra  42K Nov 22 13:20 Appartment_6_9.sf.bnd
-rw-rw-r-- 1 larnold cobra 3.6M Nov 22 13:20 Appartment_7_10.sf
-rw-rw-r-- 1 larnold cobra  42K Nov 22 13:20 Appartment_7_10.sf.bnd
-rw-rw-r-- 1 larnold cobra  12M Nov 22 13:20 Appartment_7_1.s3d
-rw-rw-r-- 1 larnold cobra  54K Nov 22 13:20 Appartment_7_1.s3d.sz
-rw-rw-r-- 1 larnold cobra 3.0M Nov 22 13:20 Appartment_7_1.sf
-rw-rw-r-- 1 larnold cobra  42K Nov 22 13:20 Appartment_7_1.sf.bnd
-rw-rw-r-- 1 larnold cobra 282K Nov 22 13:20 Appartment_7_2.s3d
-rw-rw-r-- 1 larnold cobra  54K Nov 22 13:20 Appartment_7_2.s3d.sz
-rw-rw-r-- 1 larnold cobra 2.5M Nov 22 13:20 Appartment_7_2.sf
-rw-rw-r-- 1 larnold cobra  42K Nov 22 13:20 Appartment_7_2.sf.bnd
-rw-rw-r-- 1 larnold cobra 7.0M Nov 22 13:20 Appartment_7_3.s3d
-rw-rw-r-- 1 larnold cobra  54K Nov 22 13:20 Appartment_7_3.s3d.sz
-rw-rw-r-- 1 larnold cobra 3.6M Nov 22 13:20 Appartment_7_3.sf
-rw-rw-r-- 1 larnold cobra  42K Nov 22 13:20 Appartment_7_3.sf.bnd
-rw-rw-r-- 1 larnold cobra 3.6M Nov 22 13:20 Appartment_7_4.sf
-rw-rw-r-- 1 larnold cobra  42K Nov 22 13:20 Appartment_7_4.sf.bnd
-rw-rw-r-- 1 larnold cobra 3.6M Nov 22 13:20 Appartment_7_5.sf
-rw-rw-r-- 1 larnold cobra  42K Nov 22 13:20 Appartment_7_5.sf.bnd
-rw-rw-r-- 1 larnold cobra 3.0M Nov 22 13:20 Appartment_7_6.sf
-rw-rw-r-- 1 larnold cobra  42K Nov 22 13:20 Appartment_7_6.sf.bnd
-rw-rw-r-- 1 larnold cobra 2.5M Nov 22 13:20 Appartment_7_7.sf
-rw-rw-r-- 1 larnold cobra  42K Nov 22 13:20 Appartment_7_7.sf.bnd
-rw-rw-r-- 1 larnold cobra 3.6M Nov 22 13:20 Appartment_7_8.sf
-rw-rw-r-- 1 larnold cobra  42K Nov 22 13:20 Appartment_7_8.sf.bnd
-rw-rw-r-- 1 larnold cobra 3.6M Nov 22 13:20 Appartment_7_9.sf
-rw-rw-r-- 1 larnold cobra  42K Nov 22 13:20 Appartment_7_9.sf.bnd
-rw-rw-r-- 1 larnold cobra 3.6M Nov 22 13:20 Appartment_8_10.sf
-rw-rw-r-- 1 larnold cobra  42K Nov 22 13:20 Appartment_8_10.sf.bnd
-rw-rw-r-- 1 larnold cobra 3.0M Nov 22 13:20 Appartment_8_1.bf
-rw-rw-r-- 1 larnold cobra  42K Nov 22 13:20 Appartment_8_1.bf.bnd
-rw-rw-r-- 1 larnold cobra  15M Nov 22 13:20 Appartment_8_1.s3d
-rw-rw-r-- 1 larnold cobra  54K Nov 22 13:20 Appartment_8_1.s3d.sz
-rw-rw-r-- 1 larnold cobra 3.0M Nov 22 13:20 Appartment_8_1.sf
-rw-rw-r-- 1 larnold cobra  42K Nov 22 13:20 Appartment_8_1.sf.bnd
-rw-rw-r-- 1 larnold cobra 1.2M Nov 22 13:20 Appartment_8_2.s3d
-rw-rw-r-- 1 larnold cobra  54K Nov 22 13:20 Appartment_8_2.s3d.sz
-rw-rw-r-- 1 larnold cobra 2.5M Nov 22 13:20 Appartment_8_2.sf
-rw-rw-r-- 1 larnold cobra  42K Nov 22 13:20 Appartment_8_2.sf.bnd
-rw-rw-r-- 1 larnold cobra  12M Nov 22 13:20 Appartment_8_3.s3d
-rw-rw-r-- 1 larnold cobra  54K Nov 22 13:20 Appartment_8_3.s3d.sz
-rw-rw-r-- 1 larnold cobra 3.6M Nov 22 13:20 Appartment_8_3.sf
-rw-rw-r-- 1 larnold cobra  42K Nov 22 13:20 Appartment_8_3.sf.bnd
-rw-rw-r-- 1 larnold cobra 3.6M Nov 22 13:20 Appartment_8_4.sf
-rw-rw-r-- 1 larnold cobra  42K Nov 22 13:20 Appartment_8_4.sf.bnd
-rw-rw-r-- 1 larnold cobra 3.6M Nov 22 13:20 Appartment_8_5.sf
-rw-rw-r-- 1 larnold cobra  42K Nov 22 13:20 Appartment_8_5.sf.bnd
-rw-rw-r-- 1 larnold cobra 3.0M Nov 22 13:20 Appartment_8_6.sf
-rw-rw-r-- 1 larnold cobra  42K Nov 22 13:20 Appartment_8_6.sf.bnd
-rw-rw-r-- 1 larnold cobra 2.5M Nov 22 13:20 Appartment_8_7.sf
-rw-rw-r-- 1 larnold cobra  42K Nov 22 13:20 Appartment_8_7.sf.bnd
-rw-rw-r-- 1 larnold cobra 3.6M Nov 22 13:20 Appartment_8_8.sf
-rw-rw-r-- 1 larnold cobra  42K Nov 22 13:20 Appartment_8_8.sf.bnd
-rw-rw-r-- 1 larnold cobra 3.6M Nov 22 13:20 Appartment_8_9.sf
-rw-rw-r-- 1 larnold cobra  42K Nov 22 13:20 Appartment_8_9.sf.bnd
-rw-rw-r-- 1 larnold cobra    2 Nov 22 12:26 Appartment.binfo
-rw-rw-r-- 1 larnold cobra 1.6K Nov 22 13:20 Appartment_cpu.csv
-rw-rw-r-- 1 larnold cobra   12 Nov 22 12:26 Appartment.end
-rw-r--r-- 1 larnold cobra 8.5K Nov 22 12:26 appartment.fds
-rw-rw-r-- 1 larnold cobra   25 Nov 22 12:26 Appartment_git.txt
-rw-rw-r-- 1 larnold cobra 204K Nov 22 13:20 Appartment_hrr.csv
-rw-rw-r-- 1 larnold cobra 682K Nov 22 13:20 Appartment.out
-rw-rw-r-- 1 larnold cobra    2 Nov 22 12:26 Appartment.sinfo
-rw-rw-r-- 1 larnold cobra  49K Nov 22 12:26 Appartment.smv
-rw-rw-r-- 1 larnold cobra  21K Nov 22 13:20 Appartment_steps.csv

########################################
# Back To Initial Directory
/beegfs/larnold/data/lukas/LectureFireSimulation/data/compartment/multiroom_01

########################################
# Tail -- Run Case -- compartment_steckler_test_013_10cm_001m
current time: Tue Nov 22 13:20:12 CET 2022
